*INFO DETAIL FILE

******************************************************************************

*DSSAT Cropping System Model Ver. 4.8.0.019 -develop  DEC 23, 2021 14:23:35

*RUN   1        : IITA-TMS-IBA000070                 UYAG1701    1

 EXPERIMENT     : UYAG1701 CS UYT_GXE
 DATA PATH      :
 TREATMENT  1   : IITA-TMS-IBA000070
  

 MAKEFW  YEAR DOY =    0   0
 Y4KDOY - Weather file                                                         
 Not able to find 7-digits first weather date                                  
 Set simulation to 5-digits first weather date                                 

 CSM     YEAR DOY = 2019 169
 RNMODE = B                                                                    
 PATHEX =                                                                      
 FILEX  = UYAG1701.CSX                                                         
 FILEB  = DSSBatch.V48                                                         
 FILEIO = DSSAT48.INP                                                          
 MODEL  = CSYCA048                                                             
 TRTNUM =     1                                                                

 SOILDYN  YEAR DOY = 2019 169
 The soil file has missing or invalid data.                                    
 Default values have been used for these variables:                            
   STONES, ADCOEF                                                              
 These defaults may or may not be important to your results.                   

 RETC  YEAR DOY = 2019 169
 Soil RETC parameters:                                                         
  LYR DS  SWCN   WCR    Hb Lambd  Alpha     m     n Texture                    
   1   5  0.68 0.087   7.1 0.225  0.007 0.208 1.262 SandClayLoam               
   2  15  0.68 0.087   8.1 0.231  0.007 0.211 1.268 SandClayLoam               
   3  20  0.68 0.087   5.4 0.214  0.009 0.201 1.252 SandClayLoam               
   4  25  0.68 0.087   5.4 0.214  0.009 0.201 1.252 SandClayLoam               
   5  30  0.66 0.087   3.9 0.203  0.012 0.196 1.243 SandClayLoam               
   6  35  0.52 0.087   7.1 0.225  0.007 0.208 1.262 SandClayLoam               
   7  40  0.52 0.087   7.1 0.225  0.007 0.208 1.262 SandClayLoam               
   8  55  0.52 0.087   8.3 0.214  0.007 0.199 1.248 SandClayLoam               
   9  70  0.52 0.087   8.3 0.214  0.007 0.199 1.248 SandClayLoam               
  10  95  0.52 0.087   8.3 0.214  0.007 0.199 1.248 SandClayLoam               
  11 120  0.52 0.087   8.3 0.214  0.007 0.199 1.248 SandClayLoam               

 SOILDYN  YEAR DOY = 2019 169
 Soil ID: CBAN840001                                                           
 SANDY-CLAY LOAM EL NUS: CENICAFE/CORPOICA                                     
 INCEPTISOLS.                                                                  
   SALB SWCON    CN  DMOD  SLPF SMPX                                           
   0.13  0.65  75.0  1.00  1.00 -99                                            
 Soil layer distribution method: 2                                             
      DS DLAYR    LL   DUL   SAT  Root    BD    OC  CLAY  SILT  SAND           
 LYR  cm    cm  frac  frac  frac  Grow g/cm3     %     %     %     %    pH     
   1   5     5 0.190 0.330 0.430 0.950  1.36  1.40  31.0  23.0  46.0   4.8     
   2  15    10 0.190 0.335 0.430 0.820  1.36  1.21  31.0  23.0  46.0   4.8     
   3  20     5 0.190 0.320 0.430 0.700  1.38  1.03  31.0  23.0  46.0   4.8     
   4  25     5 0.190 0.320 0.430 0.630  1.40  0.93  31.0  16.0  53.0   5.3     
   5  30     5 0.190 0.310 0.430 0.580  1.41  0.85  31.0  16.0  53.0   5.3     
   6  35     5 0.190 0.330 0.430 0.520  1.42  0.76  31.0  16.0  53.0   5.3     
   7  40     5 0.190 0.330 0.430 0.470  1.43  0.70  31.0  16.0  53.0   5.3     
   8  55    15 0.190 0.320 0.400 0.330  1.44  0.50  31.0  16.0  53.0   5.3     
   9  70    15 0.190 0.320 0.400 0.330  1.44  0.50  31.0  16.0  53.0   5.3     
  10  95    25 0.190 0.320 0.400 0.150  1.48  0.22  31.0  16.0  53.0   5.3     
  11 120    25 0.190 0.320 0.400 0.150  1.48  0.22  31.0  16.0  53.0   5.3     

 SOILDYN  YEAR DOY = 2019 169
 Additional soil properties                                                    
                Convert                                                        
    Cation Adsrp  ppm /  KSAT  SLCF  TOTN  OrgN                                
   L  Exch  Coef  kg/ha  cm/h     %     % kg/ha                                
   1   7.5   0.0   1.47   0.7   0.0  0.14   952                                
   2   7.5   0.0   0.74   0.7   0.0  0.14  1904                                
   3   7.5   0.0   1.45   0.7   0.0  0.14   966                                
   4   5.8   0.0   1.43   0.7   0.0  0.06   420                                
   5   5.8   0.0   1.42   0.7   0.0  0.06   423                                
   6   5.8   0.0   1.41   0.5   0.0  0.06   426                                
   7   5.8   0.0   1.40   0.5   0.0  0.06   429                                
   8   5.8   0.0   0.46   0.5   0.0  0.16  3456                                
   9   5.8   0.0   0.46   0.5   0.0  0.16  3456                                
  10   5.8   0.0   0.27   0.5   0.0  0.10  3700                                
  11   5.8   0.0   0.27   0.5   0.0  0.10  3700                                

 IPWTH   YEAR DOY = 2019 169
 UYAB1704.WTH                                                                  
 Found daily weather data headers for:                                         
   SRAD           Col   7 -  11                                                
   TMAX           Col  13 -  17                                                
   TMIN           Col  19 -  23                                                
   RAIN           Col  25 -  29                                                
   DEWP           Col  31 -  35                                                
   WIND           Col  37 -  41                                                
   PAR            Col  43 -  47                                                
   RHUM           Col  55 -  59                                                

 CO2VAL  YEAR DOY = 2019 169
  759 CO2 data points read from file.                                          
 CO2048.WDA                                                                    

 ENDRUN  YEAR DOY = 2020 209
 Normal end of run        1                                                    

******************************************************************************

*DSSAT Cropping System Model Ver. 4.8.0.019 -develop  DEC 23, 2021 14:23:35

*RUN   2        : IITA-TMS-IBA30572         CSYCA048 UYAG1701    2
 MODEL          : CSYCA048 - Cassava
 EXPERIMENT     : UYAG1701 CS UYT_GXE
 DATA PATH      :
 TREATMENT  2   : IITA-TMS-IBA30572         CSYCA048
  

 CSM     YEAR DOY = 2019 169
 RNMODE = B                                                                    
 PATHEX =                                                                      
 FILEX  = UYAG1701.CSX                                                         
 FILEB  = DSSBatch.V48                                                         
 FILEIO = DSSAT48.INP                                                          
 MODEL  = CSYCA048                                                             
 TRTNUM =     2                                                                

 SOILDYN  YEAR DOY = 2019 169
 The soil file has missing or invalid data.                                    
 Default values have been used for these variables:                            
   STONES, ADCOEF                                                              
 These defaults may or may not be important to your results.                   

 RETC  YEAR DOY = 2019 169
 Soil RETC parameters:                                                         
  LYR DS  SWCN   WCR    Hb Lambd  Alpha     m     n Texture                    
   1   5  0.68 0.087   7.1 0.225  0.007 0.208 1.262 SandClayLoam               
   2  15  0.68 0.087   8.1 0.231  0.007 0.211 1.268 SandClayLoam               
   3  20  0.68 0.087   5.4 0.214  0.009 0.201 1.252 SandClayLoam               
   4  25  0.68 0.087   5.4 0.214  0.009 0.201 1.252 SandClayLoam               
   5  30  0.66 0.087   3.9 0.203  0.012 0.196 1.243 SandClayLoam               
   6  35  0.52 0.087   7.1 0.225  0.007 0.208 1.262 SandClayLoam               
   7  40  0.52 0.087   7.1 0.225  0.007 0.208 1.262 SandClayLoam               
   8  55  0.52 0.087   8.3 0.214  0.007 0.199 1.248 SandClayLoam               
   9  70  0.52 0.087   8.3 0.214  0.007 0.199 1.248 SandClayLoam               
  10  95  0.52 0.087   8.3 0.214  0.007 0.199 1.248 SandClayLoam               
  11 120  0.52 0.087   8.3 0.214  0.007 0.199 1.248 SandClayLoam               

 SOILDYN  YEAR DOY = 2019 169
 Soil ID: CBAN840001                                                           
 SANDY-CLAY LOAM EL NUS: CENICAFE/CORPOICA                                     
 INCEPTISOLS.                                                                  
   SALB SWCON    CN  DMOD  SLPF SMPX                                           
   0.13  0.65  75.0  1.00  1.00 -99                                            
 Soil layer distribution method: 2                                             
      DS DLAYR    LL   DUL   SAT  Root    BD    OC  CLAY  SILT  SAND           
 LYR  cm    cm  frac  frac  frac  Grow g/cm3     %     %     %     %    pH     
   1   5     5 0.190 0.330 0.430 0.950  1.36  1.40  31.0  23.0  46.0   4.8     
   2  15    10 0.190 0.335 0.430 0.820  1.36  1.21  31.0  23.0  46.0   4.8     
   3  20     5 0.190 0.320 0.430 0.700  1.38  1.03  31.0  23.0  46.0   4.8     
   4  25     5 0.190 0.320 0.430 0.630  1.40  0.93  31.0  16.0  53.0   5.3     
   5  30     5 0.190 0.310 0.430 0.580  1.41  0.85  31.0  16.0  53.0   5.3     
   6  35     5 0.190 0.330 0.430 0.520  1.42  0.76  31.0  16.0  53.0   5.3     
   7  40     5 0.190 0.330 0.430 0.470  1.43  0.70  31.0  16.0  53.0   5.3     
   8  55    15 0.190 0.320 0.400 0.330  1.44  0.50  31.0  16.0  53.0   5.3     
   9  70    15 0.190 0.320 0.400 0.330  1.44  0.50  31.0  16.0  53.0   5.3     
  10  95    25 0.190 0.320 0.400 0.150  1.48  0.22  31.0  16.0  53.0   5.3     
  11 120    25 0.190 0.320 0.400 0.150  1.48  0.22  31.0  16.0  53.0   5.3     

 SOILDYN  YEAR DOY = 2019 169
 Additional soil properties                                                    
                Convert                                                        
    Cation Adsrp  ppm /  KSAT  SLCF  TOTN  OrgN                                
   L  Exch  Coef  kg/ha  cm/h     %     % kg/ha                                
   1   7.5   0.0   1.47   0.7   0.0  0.14   952                                
   2   7.5   0.0   0.74   0.7   0.0  0.14  1904                                
   3   7.5   0.0   1.45   0.7   0.0  0.14   966                                
   4   5.8   0.0   1.43   0.7   0.0  0.06   420                                
   5   5.8   0.0   1.42   0.7   0.0  0.06   423                                
   6   5.8   0.0   1.41   0.5   0.0  0.06   426                                
   7   5.8   0.0   1.40   0.5   0.0  0.06   429                                
   8   5.8   0.0   0.46   0.5   0.0  0.16  3456                                
   9   5.8   0.0   0.46   0.5   0.0  0.16  3456                                
  10   5.8   0.0   0.27   0.5   0.0  0.10  3700                                
  11   5.8   0.0   0.27   0.5   0.0  0.10  3700                                

 ENDRUN  YEAR DOY = 2020 209
 Normal end of run        2                                                    

******************************************************************************

*DSSAT Cropping System Model Ver. 4.8.0.019 -develop  DEC 23, 2021 14:23:36

*RUN   3        : IITA-TMS-IBA980581        CSYCA048 UYAG1701    3
 MODEL          : CSYCA048 - Cassava
 EXPERIMENT     : UYAG1701 CS UYT_GXE
 DATA PATH      :
 TREATMENT  3   : IITA-TMS-IBA980581        CSYCA048
  

 CSM     YEAR DOY = 2019 169
 RNMODE = B                                                                    
 PATHEX =                                                                      
 FILEX  = UYAG1701.CSX                                                         
 FILEB  = DSSBatch.V48                                                         
 FILEIO = DSSAT48.INP                                                          
 MODEL  = CSYCA048                                                             
 TRTNUM =     3                                                                

 SOILDYN  YEAR DOY = 2019 169
 The soil file has missing or invalid data.                                    
 Default values have been used for these variables:                            
   STONES, ADCOEF                                                              
 These defaults may or may not be important to your results.                   

 RETC  YEAR DOY = 2019 169
 Soil RETC parameters:                                                         
  LYR DS  SWCN   WCR    Hb Lambd  Alpha     m     n Texture                    
   1   5  0.68 0.087   7.1 0.225  0.007 0.208 1.262 SandClayLoam               
   2  15  0.68 0.087   8.1 0.231  0.007 0.211 1.268 SandClayLoam               
   3  20  0.68 0.087   5.4 0.214  0.009 0.201 1.252 SandClayLoam               
   4  25  0.68 0.087   5.4 0.214  0.009 0.201 1.252 SandClayLoam               
   5  30  0.66 0.087   3.9 0.203  0.012 0.196 1.243 SandClayLoam               
   6  35  0.52 0.087   7.1 0.225  0.007 0.208 1.262 SandClayLoam               
   7  40  0.52 0.087   7.1 0.225  0.007 0.208 1.262 SandClayLoam               
   8  55  0.52 0.087   8.3 0.214  0.007 0.199 1.248 SandClayLoam               
   9  70  0.52 0.087   8.3 0.214  0.007 0.199 1.248 SandClayLoam               
  10  95  0.52 0.087   8.3 0.214  0.007 0.199 1.248 SandClayLoam               
  11 120  0.52 0.087   8.3 0.214  0.007 0.199 1.248 SandClayLoam               

 SOILDYN  YEAR DOY = 2019 169
 Soil ID: CBAN840001                                                           
 SANDY-CLAY LOAM EL NUS: CENICAFE/CORPOICA                                     
 INCEPTISOLS.                                                                  
   SALB SWCON    CN  DMOD  SLPF SMPX                                           
   0.13  0.65  75.0  1.00  1.00 -99                                            
 Soil layer distribution method: 2                                             
      DS DLAYR    LL   DUL   SAT  Root    BD    OC  CLAY  SILT  SAND           
 LYR  cm    cm  frac  frac  frac  Grow g/cm3     %     %     %     %    pH     
   1   5     5 0.190 0.330 0.430 0.950  1.36  1.40  31.0  23.0  46.0   4.8     
   2  15    10 0.190 0.335 0.430 0.820  1.36  1.21  31.0  23.0  46.0   4.8     
   3  20     5 0.190 0.320 0.430 0.700  1.38  1.03  31.0  23.0  46.0   4.8     
   4  25     5 0.190 0.320 0.430 0.630  1.40  0.93  31.0  16.0  53.0   5.3     
   5  30     5 0.190 0.310 0.430 0.580  1.41  0.85  31.0  16.0  53.0   5.3     
   6  35     5 0.190 0.330 0.430 0.520  1.42  0.76  31.0  16.0  53.0   5.3     
   7  40     5 0.190 0.330 0.430 0.470  1.43  0.70  31.0  16.0  53.0   5.3     
   8  55    15 0.190 0.320 0.400 0.330  1.44  0.50  31.0  16.0  53.0   5.3     
   9  70    15 0.190 0.320 0.400 0.330  1.44  0.50  31.0  16.0  53.0   5.3     
  10  95    25 0.190 0.320 0.400 0.150  1.48  0.22  31.0  16.0  53.0   5.3     
  11 120    25 0.190 0.320 0.400 0.150  1.48  0.22  31.0  16.0  53.0   5.3     

 SOILDYN  YEAR DOY = 2019 169
 Additional soil properties                                                    
                Convert                                                        
    Cation Adsrp  ppm /  KSAT  SLCF  TOTN  OrgN                                
   L  Exch  Coef  kg/ha  cm/h     %     % kg/ha                                
   1   7.5   0.0   1.47   0.7   0.0  0.14   952                                
   2   7.5   0.0   0.74   0.7   0.0  0.14  1904                                
   3   7.5   0.0   1.45   0.7   0.0  0.14   966                                
   4   5.8   0.0   1.43   0.7   0.0  0.06   420                                
   5   5.8   0.0   1.42   0.7   0.0  0.06   423                                
   6   5.8   0.0   1.41   0.5   0.0  0.06   426                                
   7   5.8   0.0   1.40   0.5   0.0  0.06   429                                
   8   5.8   0.0   0.46   0.5   0.0  0.16  3456                                
   9   5.8   0.0   0.46   0.5   0.0  0.16  3456                                
  10   5.8   0.0   0.27   0.5   0.0  0.10  3700                                
  11   5.8   0.0   0.27   0.5   0.0  0.10  3700                                

 ENDRUN  YEAR DOY = 2020 209
 Normal end of run        3                                                    

******************************************************************************

*DSSAT Cropping System Model Ver. 4.8.0.019 -develop  DEC 23, 2021 14:23:36

*RUN   4        : IITA-TMS-IBA982101        CSYCA048 UYAG1701    4
 MODEL          : CSYCA048 - Cassava
 EXPERIMENT     : UYAG1701 CS UYT_GXE
 DATA PATH      :
 TREATMENT  4   : IITA-TMS-IBA982101        CSYCA048
  

 CSM     YEAR DOY = 2019 169
 RNMODE = B                                                                    
 PATHEX =                                                                      
 FILEX  = UYAG1701.CSX                                                         
 FILEB  = DSSBatch.V48                                                         
 FILEIO = DSSAT48.INP                                                          
 MODEL  = CSYCA048                                                             
 TRTNUM =     4                                                                

 SOILDYN  YEAR DOY = 2019 169
 The soil file has missing or invalid data.                                    
 Default values have been used for these variables:                            
   STONES, ADCOEF                                                              
 These defaults may or may not be important to your results.                   

 RETC  YEAR DOY = 2019 169
 Soil RETC parameters:                                                         
  LYR DS  SWCN   WCR    Hb Lambd  Alpha     m     n Texture                    
   1   5  0.68 0.087   7.1 0.225  0.007 0.208 1.262 SandClayLoam               
   2  15  0.68 0.087   8.1 0.231  0.007 0.211 1.268 SandClayLoam               
   3  20  0.68 0.087   5.4 0.214  0.009 0.201 1.252 SandClayLoam               
   4  25  0.68 0.087   5.4 0.214  0.009 0.201 1.252 SandClayLoam               
   5  30  0.66 0.087   3.9 0.203  0.012 0.196 1.243 SandClayLoam               
   6  35  0.52 0.087   7.1 0.225  0.007 0.208 1.262 SandClayLoam               
   7  40  0.52 0.087   7.1 0.225  0.007 0.208 1.262 SandClayLoam               
   8  55  0.52 0.087   8.3 0.214  0.007 0.199 1.248 SandClayLoam               
   9  70  0.52 0.087   8.3 0.214  0.007 0.199 1.248 SandClayLoam               
  10  95  0.52 0.087   8.3 0.214  0.007 0.199 1.248 SandClayLoam               
  11 120  0.52 0.087   8.3 0.214  0.007 0.199 1.248 SandClayLoam               

 SOILDYN  YEAR DOY = 2019 169
 Soil ID: CBAN840001                                                           
 SANDY-CLAY LOAM EL NUS: CENICAFE/CORPOICA                                     
 INCEPTISOLS.                                                                  
   SALB SWCON    CN  DMOD  SLPF SMPX                                           
   0.13  0.65  75.0  1.00  1.00 -99                                            
 Soil layer distribution method: 2                                             
      DS DLAYR    LL   DUL   SAT  Root    BD    OC  CLAY  SILT  SAND           
 LYR  cm    cm  frac  frac  frac  Grow g/cm3     %     %     %     %    pH     
   1   5     5 0.190 0.330 0.430 0.950  1.36  1.40  31.0  23.0  46.0   4.8     
   2  15    10 0.190 0.335 0.430 0.820  1.36  1.21  31.0  23.0  46.0   4.8     
   3  20     5 0.190 0.320 0.430 0.700  1.38  1.03  31.0  23.0  46.0   4.8     
   4  25     5 0.190 0.320 0.430 0.630  1.40  0.93  31.0  16.0  53.0   5.3     
   5  30     5 0.190 0.310 0.430 0.580  1.41  0.85  31.0  16.0  53.0   5.3     
   6  35     5 0.190 0.330 0.430 0.520  1.42  0.76  31.0  16.0  53.0   5.3     
   7  40     5 0.190 0.330 0.430 0.470  1.43  0.70  31.0  16.0  53.0   5.3     
   8  55    15 0.190 0.320 0.400 0.330  1.44  0.50  31.0  16.0  53.0   5.3     
   9  70    15 0.190 0.320 0.400 0.330  1.44  0.50  31.0  16.0  53.0   5.3     
  10  95    25 0.190 0.320 0.400 0.150  1.48  0.22  31.0  16.0  53.0   5.3     
  11 120    25 0.190 0.320 0.400 0.150  1.48  0.22  31.0  16.0  53.0   5.3     

 SOILDYN  YEAR DOY = 2019 169
 Additional soil properties                                                    
                Convert                                                        
    Cation Adsrp  ppm /  KSAT  SLCF  TOTN  OrgN                                
   L  Exch  Coef  kg/ha  cm/h     %     % kg/ha                                
   1   7.5   0.0   1.47   0.7   0.0  0.14   952                                
   2   7.5   0.0   0.74   0.7   0.0  0.14  1904                                
   3   7.5   0.0   1.45   0.7   0.0  0.14   966                                
   4   5.8   0.0   1.43   0.7   0.0  0.06   420                                
   5   5.8   0.0   1.42   0.7   0.0  0.06   423                                
   6   5.8   0.0   1.41   0.5   0.0  0.06   426                                
   7   5.8   0.0   1.40   0.5   0.0  0.06   429                                
   8   5.8   0.0   0.46   0.5   0.0  0.16  3456                                
   9   5.8   0.0   0.46   0.5   0.0  0.16  3456                                
  10   5.8   0.0   0.27   0.5   0.0  0.10  3700                                
  11   5.8   0.0   0.27   0.5   0.0  0.10  3700                                

 ENDRUN  YEAR DOY = 2020 209
 Normal end of run        4                                                    

******************************************************************************

*DSSAT Cropping System Model Ver. 4.8.0.019 -develop  DEC 23, 2021 14:23:36

*RUN   5        : TMEB419                   CSYCA048 UYAG1701    5
 MODEL          : CSYCA048 - Cassava
 EXPERIMENT     : UYAG1701 CS UYT_GXE
 DATA PATH      :
 TREATMENT  5   : TMEB419                   CSYCA048
  

 CSM     YEAR DOY = 2019 169
 RNMODE = B                                                                    
 PATHEX =                                                                      
 FILEX  = UYAG1701.CSX                                                         
 FILEB  = DSSBatch.V48                                                         
 FILEIO = DSSAT48.INP                                                          
 MODEL  = CSYCA048                                                             
 TRTNUM =     5                                                                

 SOILDYN  YEAR DOY = 2019 169
 The soil file has missing or invalid data.                                    
 Default values have been used for these variables:                            
   STONES, ADCOEF                                                              
 These defaults may or may not be important to your results.                   

 RETC  YEAR DOY = 2019 169
 Soil RETC parameters:                                                         
  LYR DS  SWCN   WCR    Hb Lambd  Alpha     m     n Texture                    
   1   5  0.68 0.087   7.1 0.225  0.007 0.208 1.262 SandClayLoam               
   2  15  0.68 0.087   8.1 0.231  0.007 0.211 1.268 SandClayLoam               
   3  20  0.68 0.087   5.4 0.214  0.009 0.201 1.252 SandClayLoam               
   4  25  0.68 0.087   5.4 0.214  0.009 0.201 1.252 SandClayLoam               
   5  30  0.66 0.087   3.9 0.203  0.012 0.196 1.243 SandClayLoam               
   6  35  0.52 0.087   7.1 0.225  0.007 0.208 1.262 SandClayLoam               
   7  40  0.52 0.087   7.1 0.225  0.007 0.208 1.262 SandClayLoam               
   8  55  0.52 0.087   8.3 0.214  0.007 0.199 1.248 SandClayLoam               
   9  70  0.52 0.087   8.3 0.214  0.007 0.199 1.248 SandClayLoam               
  10  95  0.52 0.087   8.3 0.214  0.007 0.199 1.248 SandClayLoam               
  11 120  0.52 0.087   8.3 0.214  0.007 0.199 1.248 SandClayLoam               

 SOILDYN  YEAR DOY = 2019 169
 Soil ID: CBAN840001                                                           
 SANDY-CLAY LOAM EL NUS: CENICAFE/CORPOICA                                     
 INCEPTISOLS.                                                                  
   SALB SWCON    CN  DMOD  SLPF SMPX                                           
   0.13  0.65  75.0  1.00  1.00 -99                                            
 Soil layer distribution method: 2                                             
      DS DLAYR    LL   DUL   SAT  Root    BD    OC  CLAY  SILT  SAND           
 LYR  cm    cm  frac  frac  frac  Grow g/cm3     %     %     %     %    pH     
   1   5     5 0.190 0.330 0.430 0.950  1.36  1.40  31.0  23.0  46.0   4.8     
   2  15    10 0.190 0.335 0.430 0.820  1.36  1.21  31.0  23.0  46.0   4.8     
   3  20     5 0.190 0.320 0.430 0.700  1.38  1.03  31.0  23.0  46.0   4.8     
   4  25     5 0.190 0.320 0.430 0.630  1.40  0.93  31.0  16.0  53.0   5.3     
   5  30     5 0.190 0.310 0.430 0.580  1.41  0.85  31.0  16.0  53.0   5.3     
   6  35     5 0.190 0.330 0.430 0.520  1.42  0.76  31.0  16.0  53.0   5.3     
   7  40     5 0.190 0.330 0.430 0.470  1.43  0.70  31.0  16.0  53.0   5.3     
   8  55    15 0.190 0.320 0.400 0.330  1.44  0.50  31.0  16.0  53.0   5.3     
   9  70    15 0.190 0.320 0.400 0.330  1.44  0.50  31.0  16.0  53.0   5.3     
  10  95    25 0.190 0.320 0.400 0.150  1.48  0.22  31.0  16.0  53.0   5.3     
  11 120    25 0.190 0.320 0.400 0.150  1.48  0.22  31.0  16.0  53.0   5.3     

 SOILDYN  YEAR DOY = 2019 169
 Additional soil properties                                                    
                Convert                                                        
    Cation Adsrp  ppm /  KSAT  SLCF  TOTN  OrgN                                
   L  Exch  Coef  kg/ha  cm/h     %     % kg/ha                                
   1   7.5   0.0   1.47   0.7   0.0  0.14   952                                
   2   7.5   0.0   0.74   0.7   0.0  0.14  1904                                
   3   7.5   0.0   1.45   0.7   0.0  0.14   966                                
   4   5.8   0.0   1.43   0.7   0.0  0.06   420                                
   5   5.8   0.0   1.42   0.7   0.0  0.06   423                                
   6   5.8   0.0   1.41   0.5   0.0  0.06   426                                
   7   5.8   0.0   1.40   0.5   0.0  0.06   429                                
   8   5.8   0.0   0.46   0.5   0.0  0.16  3456                                
   9   5.8   0.0   0.46   0.5   0.0  0.16  3456                                
  10   5.8   0.0   0.27   0.5   0.0  0.10  3700                                
  11   5.8   0.0   0.27   0.5   0.0  0.10  3700                                

 ENDRUN  YEAR DOY = 2020 209
 Normal end of run        5                                                    

******************************************************************************

*DSSAT Cropping System Model Ver. 4.8.0.019 -develop  DEC 23, 2021 14:23:36

*RUN   6        : TMS13F1021P0008           CSYCA048 UYAG1701    6
 MODEL          : CSYCA048 - Cassava
 EXPERIMENT     : UYAG1701 CS UYT_GXE
 DATA PATH      :
 TREATMENT  6   : TMS13F1021P0008           CSYCA048
  

 CSM     YEAR DOY = 2019 169
 RNMODE = B                                                                    
 PATHEX =                                                                      
 FILEX  = UYAG1701.CSX                                                         
 FILEB  = DSSBatch.V48                                                         
 FILEIO = DSSAT48.INP                                                          
 MODEL  = CSYCA048                                                             
 TRTNUM =     6                                                                

 SOILDYN  YEAR DOY = 2019 169
 The soil file has missing or invalid data.                                    
 Default values have been used for these variables:                            
   STONES, ADCOEF                                                              
 These defaults may or may not be important to your results.                   

 RETC  YEAR DOY = 2019 169
 Soil RETC parameters:                                                         
  LYR DS  SWCN   WCR    Hb Lambd  Alpha     m     n Texture                    
   1   5  0.68 0.087   7.1 0.225  0.007 0.208 1.262 SandClayLoam               
   2  15  0.68 0.087   8.1 0.231  0.007 0.211 1.268 SandClayLoam               
   3  20  0.68 0.087   5.4 0.214  0.009 0.201 1.252 SandClayLoam               
   4  25  0.68 0.087   5.4 0.214  0.009 0.201 1.252 SandClayLoam               
   5  30  0.66 0.087   3.9 0.203  0.012 0.196 1.243 SandClayLoam               
   6  35  0.52 0.087   7.1 0.225  0.007 0.208 1.262 SandClayLoam               
   7  40  0.52 0.087   7.1 0.225  0.007 0.208 1.262 SandClayLoam               
   8  55  0.52 0.087   8.3 0.214  0.007 0.199 1.248 SandClayLoam               
   9  70  0.52 0.087   8.3 0.214  0.007 0.199 1.248 SandClayLoam               
  10  95  0.52 0.087   8.3 0.214  0.007 0.199 1.248 SandClayLoam               
  11 120  0.52 0.087   8.3 0.214  0.007 0.199 1.248 SandClayLoam               

 SOILDYN  YEAR DOY = 2019 169
 Soil ID: CBAN840001                                                           
 SANDY-CLAY LOAM EL NUS: CENICAFE/CORPOICA                                     
 INCEPTISOLS.                                                                  
   SALB SWCON    CN  DMOD  SLPF SMPX                                           
   0.13  0.65  75.0  1.00  1.00 -99                                            
 Soil layer distribution method: 2                                             
      DS DLAYR    LL   DUL   SAT  Root    BD    OC  CLAY  SILT  SAND           
 LYR  cm    cm  frac  frac  frac  Grow g/cm3     %     %     %     %    pH     
   1   5     5 0.190 0.330 0.430 0.950  1.36  1.40  31.0  23.0  46.0   4.8     
   2  15    10 0.190 0.335 0.430 0.820  1.36  1.21  31.0  23.0  46.0   4.8     
   3  20     5 0.190 0.320 0.430 0.700  1.38  1.03  31.0  23.0  46.0   4.8     
   4  25     5 0.190 0.320 0.430 0.630  1.40  0.93  31.0  16.0  53.0   5.3     
   5  30     5 0.190 0.310 0.430 0.580  1.41  0.85  31.0  16.0  53.0   5.3     
   6  35     5 0.190 0.330 0.430 0.520  1.42  0.76  31.0  16.0  53.0   5.3     
   7  40     5 0.190 0.330 0.430 0.470  1.43  0.70  31.0  16.0  53.0   5.3     
   8  55    15 0.190 0.320 0.400 0.330  1.44  0.50  31.0  16.0  53.0   5.3     
   9  70    15 0.190 0.320 0.400 0.330  1.44  0.50  31.0  16.0  53.0   5.3     
  10  95    25 0.190 0.320 0.400 0.150  1.48  0.22  31.0  16.0  53.0   5.3     
  11 120    25 0.190 0.320 0.400 0.150  1.48  0.22  31.0  16.0  53.0   5.3     

 SOILDYN  YEAR DOY = 2019 169
 Additional soil properties                                                    
                Convert                                                        
    Cation Adsrp  ppm /  KSAT  SLCF  TOTN  OrgN                                
   L  Exch  Coef  kg/ha  cm/h     %     % kg/ha                                
   1   7.5   0.0   1.47   0.7   0.0  0.14   952                                
   2   7.5   0.0   0.74   0.7   0.0  0.14  1904                                
   3   7.5   0.0   1.45   0.7   0.0  0.14   966                                
   4   5.8   0.0   1.43   0.7   0.0  0.06   420                                
   5   5.8   0.0   1.42   0.7   0.0  0.06   423                                
   6   5.8   0.0   1.41   0.5   0.0  0.06   426                                
   7   5.8   0.0   1.40   0.5   0.0  0.06   429                                
   8   5.8   0.0   0.46   0.5   0.0  0.16  3456                                
   9   5.8   0.0   0.46   0.5   0.0  0.16  3456                                
  10   5.8   0.0   0.27   0.5   0.0  0.10  3700                                
  11   5.8   0.0   0.27   0.5   0.0  0.10  3700                                

 ENDRUN  YEAR DOY = 2020 209
 Normal end of run        6                                                    

******************************************************************************

*DSSAT Cropping System Model Ver. 4.8.0.019 -develop  DEC 23, 2021 14:23:37

*RUN   7        : TMS13F1049P0001           CSYCA048 UYAG1701    7
 MODEL          : CSYCA048 - Cassava
 EXPERIMENT     : UYAG1701 CS UYT_GXE
 DATA PATH      :
 TREATMENT  7   : TMS13F1049P0001           CSYCA048
  

 CSM     YEAR DOY = 2019 169
 RNMODE = B                                                                    
 PATHEX =                                                                      
 FILEX  = UYAG1701.CSX                                                         
 FILEB  = DSSBatch.V48                                                         
 FILEIO = DSSAT48.INP                                                          
 MODEL  = CSYCA048                                                             
 TRTNUM =     7                                                                

 SOILDYN  YEAR DOY = 2019 169
 The soil file has missing or invalid data.                                    
 Default values have been used for these variables:                            
   STONES, ADCOEF                                                              
 These defaults may or may not be important to your results.                   

 RETC  YEAR DOY = 2019 169
 Soil RETC parameters:                                                         
  LYR DS  SWCN   WCR    Hb Lambd  Alpha     m     n Texture                    
   1   5  0.68 0.087   7.1 0.225  0.007 0.208 1.262 SandClayLoam               
   2  15  0.68 0.087   8.1 0.231  0.007 0.211 1.268 SandClayLoam               
   3  20  0.68 0.087   5.4 0.214  0.009 0.201 1.252 SandClayLoam               
   4  25  0.68 0.087   5.4 0.214  0.009 0.201 1.252 SandClayLoam               
   5  30  0.66 0.087   3.9 0.203  0.012 0.196 1.243 SandClayLoam               
   6  35  0.52 0.087   7.1 0.225  0.007 0.208 1.262 SandClayLoam               
   7  40  0.52 0.087   7.1 0.225  0.007 0.208 1.262 SandClayLoam               
   8  55  0.52 0.087   8.3 0.214  0.007 0.199 1.248 SandClayLoam               
   9  70  0.52 0.087   8.3 0.214  0.007 0.199 1.248 SandClayLoam               
  10  95  0.52 0.087   8.3 0.214  0.007 0.199 1.248 SandClayLoam               
  11 120  0.52 0.087   8.3 0.214  0.007 0.199 1.248 SandClayLoam               

 SOILDYN  YEAR DOY = 2019 169
 Soil ID: CBAN840001                                                           
 SANDY-CLAY LOAM EL NUS: CENICAFE/CORPOICA                                     
 INCEPTISOLS.                                                                  
   SALB SWCON    CN  DMOD  SLPF SMPX                                           
   0.13  0.65  75.0  1.00  1.00 -99                                            
 Soil layer distribution method: 2                                             
      DS DLAYR    LL   DUL   SAT  Root    BD    OC  CLAY  SILT  SAND           
 LYR  cm    cm  frac  frac  frac  Grow g/cm3     %     %     %     %    pH     
   1   5     5 0.190 0.330 0.430 0.950  1.36  1.40  31.0  23.0  46.0   4.8     
   2  15    10 0.190 0.335 0.430 0.820  1.36  1.21  31.0  23.0  46.0   4.8     
   3  20     5 0.190 0.320 0.430 0.700  1.38  1.03  31.0  23.0  46.0   4.8     
   4  25     5 0.190 0.320 0.430 0.630  1.40  0.93  31.0  16.0  53.0   5.3     
   5  30     5 0.190 0.310 0.430 0.580  1.41  0.85  31.0  16.0  53.0   5.3     
   6  35     5 0.190 0.330 0.430 0.520  1.42  0.76  31.0  16.0  53.0   5.3     
   7  40     5 0.190 0.330 0.430 0.470  1.43  0.70  31.0  16.0  53.0   5.3     
   8  55    15 0.190 0.320 0.400 0.330  1.44  0.50  31.0  16.0  53.0   5.3     
   9  70    15 0.190 0.320 0.400 0.330  1.44  0.50  31.0  16.0  53.0   5.3     
  10  95    25 0.190 0.320 0.400 0.150  1.48  0.22  31.0  16.0  53.0   5.3     
  11 120    25 0.190 0.320 0.400 0.150  1.48  0.22  31.0  16.0  53.0   5.3     

 SOILDYN  YEAR DOY = 2019 169
 Additional soil properties                                                    
                Convert                                                        
    Cation Adsrp  ppm /  KSAT  SLCF  TOTN  OrgN                                
   L  Exch  Coef  kg/ha  cm/h     %     % kg/ha                                
   1   7.5   0.0   1.47   0.7   0.0  0.14   952                                
   2   7.5   0.0   0.74   0.7   0.0  0.14  1904                                
   3   7.5   0.0   1.45   0.7   0.0  0.14   966                                
   4   5.8   0.0   1.43   0.7   0.0  0.06   420                                
   5   5.8   0.0   1.42   0.7   0.0  0.06   423                                
   6   5.8   0.0   1.41   0.5   0.0  0.06   426                                
   7   5.8   0.0   1.40   0.5   0.0  0.06   429                                
   8   5.8   0.0   0.46   0.5   0.0  0.16  3456                                
   9   5.8   0.0   0.46   0.5   0.0  0.16  3456                                
  10   5.8   0.0   0.27   0.5   0.0  0.10  3700                                
  11   5.8   0.0   0.27   0.5   0.0  0.10  3700                                

 ENDRUN  YEAR DOY = 2020 209
 Normal end of run        7                                                    

******************************************************************************

*DSSAT Cropping System Model Ver. 4.8.0.019 -develop  DEC 23, 2021 14:23:37

*RUN   8        : TMS13F1114P0001           CSYCA048 UYAG1701    8
 MODEL          : CSYCA048 - Cassava
 EXPERIMENT     : UYAG1701 CS UYT_GXE
 DATA PATH      :
 TREATMENT  8   : TMS13F1114P0001           CSYCA048
  

 CSM     YEAR DOY = 2019 169
 RNMODE = B                                                                    
 PATHEX =                                                                      
 FILEX  = UYAG1701.CSX                                                         
 FILEB  = DSSBatch.V48                                                         
 FILEIO = DSSAT48.INP                                                          
 MODEL  = CSYCA048                                                             
 TRTNUM =     8                                                                

 SOILDYN  YEAR DOY = 2019 169
 The soil file has missing or invalid data.                                    
 Default values have been used for these variables:                            
   STONES, ADCOEF                                                              
 These defaults may or may not be important to your results.                   

 RETC  YEAR DOY = 2019 169
 Soil RETC parameters:                                                         
  LYR DS  SWCN   WCR    Hb Lambd  Alpha     m     n Texture                    
   1   5  0.68 0.087   7.1 0.225  0.007 0.208 1.262 SandClayLoam               
   2  15  0.68 0.087   8.1 0.231  0.007 0.211 1.268 SandClayLoam               
   3  20  0.68 0.087   5.4 0.214  0.009 0.201 1.252 SandClayLoam               
   4  25  0.68 0.087   5.4 0.214  0.009 0.201 1.252 SandClayLoam               
   5  30  0.66 0.087   3.9 0.203  0.012 0.196 1.243 SandClayLoam               
   6  35  0.52 0.087   7.1 0.225  0.007 0.208 1.262 SandClayLoam               
   7  40  0.52 0.087   7.1 0.225  0.007 0.208 1.262 SandClayLoam               
   8  55  0.52 0.087   8.3 0.214  0.007 0.199 1.248 SandClayLoam               
   9  70  0.52 0.087   8.3 0.214  0.007 0.199 1.248 SandClayLoam               
  10  95  0.52 0.087   8.3 0.214  0.007 0.199 1.248 SandClayLoam               
  11 120  0.52 0.087   8.3 0.214  0.007 0.199 1.248 SandClayLoam               

 SOILDYN  YEAR DOY = 2019 169
 Soil ID: CBAN840001                                                           
 SANDY-CLAY LOAM EL NUS: CENICAFE/CORPOICA                                     
 INCEPTISOLS.                                                                  
   SALB SWCON    CN  DMOD  SLPF SMPX                                           
   0.13  0.65  75.0  1.00  1.00 -99                                            
 Soil layer distribution method: 2                                             
      DS DLAYR    LL   DUL   SAT  Root    BD    OC  CLAY  SILT  SAND           
 LYR  cm    cm  frac  frac  frac  Grow g/cm3     %     %     %     %    pH     
   1   5     5 0.190 0.330 0.430 0.950  1.36  1.40  31.0  23.0  46.0   4.8     
   2  15    10 0.190 0.335 0.430 0.820  1.36  1.21  31.0  23.0  46.0   4.8     
   3  20     5 0.190 0.320 0.430 0.700  1.38  1.03  31.0  23.0  46.0   4.8     
   4  25     5 0.190 0.320 0.430 0.630  1.40  0.93  31.0  16.0  53.0   5.3     
   5  30     5 0.190 0.310 0.430 0.580  1.41  0.85  31.0  16.0  53.0   5.3     
   6  35     5 0.190 0.330 0.430 0.520  1.42  0.76  31.0  16.0  53.0   5.3     
   7  40     5 0.190 0.330 0.430 0.470  1.43  0.70  31.0  16.0  53.0   5.3     
   8  55    15 0.190 0.320 0.400 0.330  1.44  0.50  31.0  16.0  53.0   5.3     
   9  70    15 0.190 0.320 0.400 0.330  1.44  0.50  31.0  16.0  53.0   5.3     
  10  95    25 0.190 0.320 0.400 0.150  1.48  0.22  31.0  16.0  53.0   5.3     
  11 120    25 0.190 0.320 0.400 0.150  1.48  0.22  31.0  16.0  53.0   5.3     

 SOILDYN  YEAR DOY = 2019 169
 Additional soil properties                                                    
                Convert                                                        
    Cation Adsrp  ppm /  KSAT  SLCF  TOTN  OrgN                                
   L  Exch  Coef  kg/ha  cm/h     %     % kg/ha                                
   1   7.5   0.0   1.47   0.7   0.0  0.14   952                                
   2   7.5   0.0   0.74   0.7   0.0  0.14  1904                                
   3   7.5   0.0   1.45   0.7   0.0  0.14   966                                
   4   5.8   0.0   1.43   0.7   0.0  0.06   420                                
   5   5.8   0.0   1.42   0.7   0.0  0.06   423                                
   6   5.8   0.0   1.41   0.5   0.0  0.06   426                                
   7   5.8   0.0   1.40   0.5   0.0  0.06   429                                
   8   5.8   0.0   0.46   0.5   0.0  0.16  3456                                
   9   5.8   0.0   0.46   0.5   0.0  0.16  3456                                
  10   5.8   0.0   0.27   0.5   0.0  0.10  3700                                
  11   5.8   0.0   0.27   0.5   0.0  0.10  3700                                

 ENDRUN  YEAR DOY = 2020 209
 Normal end of run        8                                                    

******************************************************************************

*DSSAT Cropping System Model Ver. 4.8.0.019 -develop  DEC 23, 2021 14:23:37

*RUN   9        : TMS13F1126P0003           CSYCA048 UYAG1701    9
 MODEL          : CSYCA048 - Cassava
 EXPERIMENT     : UYAG1701 CS UYT_GXE
 DATA PATH      :
 TREATMENT  9   : TMS13F1126P0003           CSYCA048
  

 CSM     YEAR DOY = 2019 169
 RNMODE = B                                                                    
 PATHEX =                                                                      
 FILEX  = UYAG1701.CSX                                                         
 FILEB  = DSSBatch.V48                                                         
 FILEIO = DSSAT48.INP                                                          
 MODEL  = CSYCA048                                                             
 TRTNUM =     9                                                                

 SOILDYN  YEAR DOY = 2019 169
 The soil file has missing or invalid data.                                    
 Default values have been used for these variables:                            
   STONES, ADCOEF                                                              
 These defaults may or may not be important to your results.                   

 RETC  YEAR DOY = 2019 169
 Soil RETC parameters:                                                         
  LYR DS  SWCN   WCR    Hb Lambd  Alpha     m     n Texture                    
   1   5  0.68 0.087   7.1 0.225  0.007 0.208 1.262 SandClayLoam               
   2  15  0.68 0.087   8.1 0.231  0.007 0.211 1.268 SandClayLoam               
   3  20  0.68 0.087   5.4 0.214  0.009 0.201 1.252 SandClayLoam               
   4  25  0.68 0.087   5.4 0.214  0.009 0.201 1.252 SandClayLoam               
   5  30  0.66 0.087   3.9 0.203  0.012 0.196 1.243 SandClayLoam               
   6  35  0.52 0.087   7.1 0.225  0.007 0.208 1.262 SandClayLoam               
   7  40  0.52 0.087   7.1 0.225  0.007 0.208 1.262 SandClayLoam               
   8  55  0.52 0.087   8.3 0.214  0.007 0.199 1.248 SandClayLoam               
   9  70  0.52 0.087   8.3 0.214  0.007 0.199 1.248 SandClayLoam               
  10  95  0.52 0.087   8.3 0.214  0.007 0.199 1.248 SandClayLoam               
  11 120  0.52 0.087   8.3 0.214  0.007 0.199 1.248 SandClayLoam               

 SOILDYN  YEAR DOY = 2019 169
 Soil ID: CBAN840001                                                           
 SANDY-CLAY LOAM EL NUS: CENICAFE/CORPOICA                                     
 INCEPTISOLS.                                                                  
   SALB SWCON    CN  DMOD  SLPF SMPX                                           
   0.13  0.65  75.0  1.00  1.00 -99                                            
 Soil layer distribution method: 2                                             
      DS DLAYR    LL   DUL   SAT  Root    BD    OC  CLAY  SILT  SAND           
 LYR  cm    cm  frac  frac  frac  Grow g/cm3     %     %     %     %    pH     
   1   5     5 0.190 0.330 0.430 0.950  1.36  1.40  31.0  23.0  46.0   4.8     
   2  15    10 0.190 0.335 0.430 0.820  1.36  1.21  31.0  23.0  46.0   4.8     
   3  20     5 0.190 0.320 0.430 0.700  1.38  1.03  31.0  23.0  46.0   4.8     
   4  25     5 0.190 0.320 0.430 0.630  1.40  0.93  31.0  16.0  53.0   5.3     
   5  30     5 0.190 0.310 0.430 0.580  1.41  0.85  31.0  16.0  53.0   5.3     
   6  35     5 0.190 0.330 0.430 0.520  1.42  0.76  31.0  16.0  53.0   5.3     
   7  40     5 0.190 0.330 0.430 0.470  1.43  0.70  31.0  16.0  53.0   5.3     
   8  55    15 0.190 0.320 0.400 0.330  1.44  0.50  31.0  16.0  53.0   5.3     
   9  70    15 0.190 0.320 0.400 0.330  1.44  0.50  31.0  16.0  53.0   5.3     
  10  95    25 0.190 0.320 0.400 0.150  1.48  0.22  31.0  16.0  53.0   5.3     
  11 120    25 0.190 0.320 0.400 0.150  1.48  0.22  31.0  16.0  53.0   5.3     

 SOILDYN  YEAR DOY = 2019 169
 Additional soil properties                                                    
                Convert                                                        
    Cation Adsrp  ppm /  KSAT  SLCF  TOTN  OrgN                                
   L  Exch  Coef  kg/ha  cm/h     %     % kg/ha                                
   1   7.5   0.0   1.47   0.7   0.0  0.14   952                                
   2   7.5   0.0   0.74   0.7   0.0  0.14  1904                                
   3   7.5   0.0   1.45   0.7   0.0  0.14   966                                
   4   5.8   0.0   1.43   0.7   0.0  0.06   420                                
   5   5.8   0.0   1.42   0.7   0.0  0.06   423                                
   6   5.8   0.0   1.41   0.5   0.0  0.06   426                                
   7   5.8   0.0   1.40   0.5   0.0  0.06   429                                
   8   5.8   0.0   0.46   0.5   0.0  0.16  3456                                
   9   5.8   0.0   0.46   0.5   0.0  0.16  3456                                
  10   5.8   0.0   0.27   0.5   0.0  0.10  3700                                
  11   5.8   0.0   0.27   0.5   0.0  0.10  3700                                

 ENDRUN  YEAR DOY = 2020 209
 Normal end of run        9                                                    

******************************************************************************

*DSSAT Cropping System Model Ver. 4.8.0.019 -develop  DEC 23, 2021 14:23:37

*RUN  10        : TMS13F1182P0002           CSYCA048 UYAG1701   10
 MODEL          : CSYCA048 - Cassava
 EXPERIMENT     : UYAG1701 CS UYT_GXE
 DATA PATH      :
 TREATMENT 10   : TMS13F1182P0002           CSYCA048
  

 CSM     YEAR DOY = 2019 169
 RNMODE = B                                                                    
 PATHEX =                                                                      
 FILEX  = UYAG1701.CSX                                                         
 FILEB  = DSSBatch.V48                                                         
 FILEIO = DSSAT48.INP                                                          
 MODEL  = CSYCA048                                                             
 TRTNUM =    10                                                                

 SOILDYN  YEAR DOY = 2019 169
 The soil file has missing or invalid data.                                    
 Default values have been used for these variables:                            
   STONES, ADCOEF                                                              
 These defaults may or may not be important to your results.                   

 RETC  YEAR DOY = 2019 169
 Soil RETC parameters:                                                         
  LYR DS  SWCN   WCR    Hb Lambd  Alpha     m     n Texture                    
   1   5  0.68 0.087   7.1 0.225  0.007 0.208 1.262 SandClayLoam               
   2  15  0.68 0.087   8.1 0.231  0.007 0.211 1.268 SandClayLoam               
   3  20  0.68 0.087   5.4 0.214  0.009 0.201 1.252 SandClayLoam               
   4  25  0.68 0.087   5.4 0.214  0.009 0.201 1.252 SandClayLoam               
   5  30  0.66 0.087   3.9 0.203  0.012 0.196 1.243 SandClayLoam               
   6  35  0.52 0.087   7.1 0.225  0.007 0.208 1.262 SandClayLoam               
   7  40  0.52 0.087   7.1 0.225  0.007 0.208 1.262 SandClayLoam               
   8  55  0.52 0.087   8.3 0.214  0.007 0.199 1.248 SandClayLoam               
   9  70  0.52 0.087   8.3 0.214  0.007 0.199 1.248 SandClayLoam               
  10  95  0.52 0.087   8.3 0.214  0.007 0.199 1.248 SandClayLoam               
  11 120  0.52 0.087   8.3 0.214  0.007 0.199 1.248 SandClayLoam               

 SOILDYN  YEAR DOY = 2019 169
 Soil ID: CBAN840001                                                           
 SANDY-CLAY LOAM EL NUS: CENICAFE/CORPOICA                                     
 INCEPTISOLS.                                                                  
   SALB SWCON    CN  DMOD  SLPF SMPX                                           
   0.13  0.65  75.0  1.00  1.00 -99                                            
 Soil layer distribution method: 2                                             
      DS DLAYR    LL   DUL   SAT  Root    BD    OC  CLAY  SILT  SAND           
 LYR  cm    cm  frac  frac  frac  Grow g/cm3     %     %     %     %    pH     
   1   5     5 0.190 0.330 0.430 0.950  1.36  1.40  31.0  23.0  46.0   4.8     
   2  15    10 0.190 0.335 0.430 0.820  1.36  1.21  31.0  23.0  46.0   4.8     
   3  20     5 0.190 0.320 0.430 0.700  1.38  1.03  31.0  23.0  46.0   4.8     
   4  25     5 0.190 0.320 0.430 0.630  1.40  0.93  31.0  16.0  53.0   5.3     
   5  30     5 0.190 0.310 0.430 0.580  1.41  0.85  31.0  16.0  53.0   5.3     
   6  35     5 0.190 0.330 0.430 0.520  1.42  0.76  31.0  16.0  53.0   5.3     
   7  40     5 0.190 0.330 0.430 0.470  1.43  0.70  31.0  16.0  53.0   5.3     
   8  55    15 0.190 0.320 0.400 0.330  1.44  0.50  31.0  16.0  53.0   5.3     
   9  70    15 0.190 0.320 0.400 0.330  1.44  0.50  31.0  16.0  53.0   5.3     
  10  95    25 0.190 0.320 0.400 0.150  1.48  0.22  31.0  16.0  53.0   5.3     
  11 120    25 0.190 0.320 0.400 0.150  1.48  0.22  31.0  16.0  53.0   5.3     

 SOILDYN  YEAR DOY = 2019 169
 Additional soil properties                                                    
                Convert                                                        
    Cation Adsrp  ppm /  KSAT  SLCF  TOTN  OrgN                                
   L  Exch  Coef  kg/ha  cm/h     %     % kg/ha                                
   1   7.5   0.0   1.47   0.7   0.0  0.14   952                                
   2   7.5   0.0   0.74   0.7   0.0  0.14  1904                                
   3   7.5   0.0   1.45   0.7   0.0  0.14   966                                
   4   5.8   0.0   1.43   0.7   0.0  0.06   420                                
   5   5.8   0.0   1.42   0.7   0.0  0.06   423                                
   6   5.8   0.0   1.41   0.5   0.0  0.06   426                                
   7   5.8   0.0   1.40   0.5   0.0  0.06   429                                
   8   5.8   0.0   0.46   0.5   0.0  0.16  3456                                
   9   5.8   0.0   0.46   0.5   0.0  0.16  3456                                
  10   5.8   0.0   0.27   0.5   0.0  0.10  3700                                
  11   5.8   0.0   0.27   0.5   0.0  0.10  3700                                

 ENDRUN  YEAR DOY = 2020 209
 Normal end of run       10                                                    

******************************************************************************

*DSSAT Cropping System Model Ver. 4.8.0.019 -develop  DEC 23, 2021 14:23:37

*RUN  11        : TMS13F1304P0003           CSYCA048 UYAG1701   11
 MODEL          : CSYCA048 - Cassava
 EXPERIMENT     : UYAG1701 CS UYT_GXE
 DATA PATH      :
 TREATMENT 11   : TMS13F1304P0003           CSYCA048
  

 CSM     YEAR DOY = 2019 169
 RNMODE = B                                                                    
 PATHEX =                                                                      
 FILEX  = UYAG1701.CSX                                                         
 FILEB  = DSSBatch.V48                                                         
 FILEIO = DSSAT48.INP                                                          
 MODEL  = CSYCA048                                                             
 TRTNUM =    11                                                                

 SOILDYN  YEAR DOY = 2019 169
 The soil file has missing or invalid data.                                    
 Default values have been used for these variables:                            
   STONES, ADCOEF                                                              
 These defaults may or may not be important to your results.                   

 RETC  YEAR DOY = 2019 169
 Soil RETC parameters:                                                         
  LYR DS  SWCN   WCR    Hb Lambd  Alpha     m     n Texture                    
   1   5  0.68 0.087   7.1 0.225  0.007 0.208 1.262 SandClayLoam               
   2  15  0.68 0.087   8.1 0.231  0.007 0.211 1.268 SandClayLoam               
   3  20  0.68 0.087   5.4 0.214  0.009 0.201 1.252 SandClayLoam               
   4  25  0.68 0.087   5.4 0.214  0.009 0.201 1.252 SandClayLoam               
   5  30  0.66 0.087   3.9 0.203  0.012 0.196 1.243 SandClayLoam               
   6  35  0.52 0.087   7.1 0.225  0.007 0.208 1.262 SandClayLoam               
   7  40  0.52 0.087   7.1 0.225  0.007 0.208 1.262 SandClayLoam               
   8  55  0.52 0.087   8.3 0.214  0.007 0.199 1.248 SandClayLoam               
   9  70  0.52 0.087   8.3 0.214  0.007 0.199 1.248 SandClayLoam               
  10  95  0.52 0.087   8.3 0.214  0.007 0.199 1.248 SandClayLoam               
  11 120  0.52 0.087   8.3 0.214  0.007 0.199 1.248 SandClayLoam               

 SOILDYN  YEAR DOY = 2019 169
 Soil ID: CBAN840001                                                           
 SANDY-CLAY LOAM EL NUS: CENICAFE/CORPOICA                                     
 INCEPTISOLS.                                                                  
   SALB SWCON    CN  DMOD  SLPF SMPX                                           
   0.13  0.65  75.0  1.00  1.00 -99                                            
 Soil layer distribution method: 2                                             
      DS DLAYR    LL   DUL   SAT  Root    BD    OC  CLAY  SILT  SAND           
 LYR  cm    cm  frac  frac  frac  Grow g/cm3     %     %     %     %    pH     
   1   5     5 0.190 0.330 0.430 0.950  1.36  1.40  31.0  23.0  46.0   4.8     
   2  15    10 0.190 0.335 0.430 0.820  1.36  1.21  31.0  23.0  46.0   4.8     
   3  20     5 0.190 0.320 0.430 0.700  1.38  1.03  31.0  23.0  46.0   4.8     
   4  25     5 0.190 0.320 0.430 0.630  1.40  0.93  31.0  16.0  53.0   5.3     
   5  30     5 0.190 0.310 0.430 0.580  1.41  0.85  31.0  16.0  53.0   5.3     
   6  35     5 0.190 0.330 0.430 0.520  1.42  0.76  31.0  16.0  53.0   5.3     
   7  40     5 0.190 0.330 0.430 0.470  1.43  0.70  31.0  16.0  53.0   5.3     
   8  55    15 0.190 0.320 0.400 0.330  1.44  0.50  31.0  16.0  53.0   5.3     
   9  70    15 0.190 0.320 0.400 0.330  1.44  0.50  31.0  16.0  53.0   5.3     
  10  95    25 0.190 0.320 0.400 0.150  1.48  0.22  31.0  16.0  53.0   5.3     
  11 120    25 0.190 0.320 0.400 0.150  1.48  0.22  31.0  16.0  53.0   5.3     

 SOILDYN  YEAR DOY = 2019 169
 Additional soil properties                                                    
                Convert                                                        
    Cation Adsrp  ppm /  KSAT  SLCF  TOTN  OrgN                                
   L  Exch  Coef  kg/ha  cm/h     %     % kg/ha                                
   1   7.5   0.0   1.47   0.7   0.0  0.14   952                                
   2   7.5   0.0   0.74   0.7   0.0  0.14  1904                                
   3   7.5   0.0   1.45   0.7   0.0  0.14   966                                
   4   5.8   0.0   1.43   0.7   0.0  0.06   420                                
   5   5.8   0.0   1.42   0.7   0.0  0.06   423                                
   6   5.8   0.0   1.41   0.5   0.0  0.06   426                                
   7   5.8   0.0   1.40   0.5   0.0  0.06   429                                
   8   5.8   0.0   0.46   0.5   0.0  0.16  3456                                
   9   5.8   0.0   0.46   0.5   0.0  0.16  3456                                
  10   5.8   0.0   0.27   0.5   0.0  0.10  3700                                
  11   5.8   0.0   0.27   0.5   0.0  0.10  3700                                

 ENDRUN  YEAR DOY = 2020 209
 Normal end of run       11                                                    

******************************************************************************

*DSSAT Cropping System Model Ver. 4.8.0.019 -develop  DEC 23, 2021 14:23:38

*RUN  12        : TMS13F1315P0008           CSYCA048 UYAG1701   12
 MODEL          : CSYCA048 - Cassava
 EXPERIMENT     : UYAG1701 CS UYT_GXE
 DATA PATH      :
 TREATMENT 12   : TMS13F1315P0008           CSYCA048
  

 CSM     YEAR DOY = 2019 169
 RNMODE = B                                                                    
 PATHEX =                                                                      
 FILEX  = UYAG1701.CSX                                                         
 FILEB  = DSSBatch.V48                                                         
 FILEIO = DSSAT48.INP                                                          
 MODEL  = CSYCA048                                                             
 TRTNUM =    12                                                                

 SOILDYN  YEAR DOY = 2019 169
 The soil file has missing or invalid data.                                    
 Default values have been used for these variables:                            
   STONES, ADCOEF                                                              
 These defaults may or may not be important to your results.                   

 RETC  YEAR DOY = 2019 169
 Soil RETC parameters:                                                         
  LYR DS  SWCN   WCR    Hb Lambd  Alpha     m     n Texture                    
   1   5  0.68 0.087   7.1 0.225  0.007 0.208 1.262 SandClayLoam               
   2  15  0.68 0.087   8.1 0.231  0.007 0.211 1.268 SandClayLoam               
   3  20  0.68 0.087   5.4 0.214  0.009 0.201 1.252 SandClayLoam               
   4  25  0.68 0.087   5.4 0.214  0.009 0.201 1.252 SandClayLoam               
   5  30  0.66 0.087   3.9 0.203  0.012 0.196 1.243 SandClayLoam               
   6  35  0.52 0.087   7.1 0.225  0.007 0.208 1.262 SandClayLoam               
   7  40  0.52 0.087   7.1 0.225  0.007 0.208 1.262 SandClayLoam               
   8  55  0.52 0.087   8.3 0.214  0.007 0.199 1.248 SandClayLoam               
   9  70  0.52 0.087   8.3 0.214  0.007 0.199 1.248 SandClayLoam               
  10  95  0.52 0.087   8.3 0.214  0.007 0.199 1.248 SandClayLoam               
  11 120  0.52 0.087   8.3 0.214  0.007 0.199 1.248 SandClayLoam               

 SOILDYN  YEAR DOY = 2019 169
 Soil ID: CBAN840001                                                           
 SANDY-CLAY LOAM EL NUS: CENICAFE/CORPOICA                                     
 INCEPTISOLS.                                                                  
   SALB SWCON    CN  DMOD  SLPF SMPX                                           
   0.13  0.65  75.0  1.00  1.00 -99                                            
 Soil layer distribution method: 2                                             
      DS DLAYR    LL   DUL   SAT  Root    BD    OC  CLAY  SILT  SAND           
 LYR  cm    cm  frac  frac  frac  Grow g/cm3     %     %     %     %    pH     
   1   5     5 0.190 0.330 0.430 0.950  1.36  1.40  31.0  23.0  46.0   4.8     
   2  15    10 0.190 0.335 0.430 0.820  1.36  1.21  31.0  23.0  46.0   4.8     
   3  20     5 0.190 0.320 0.430 0.700  1.38  1.03  31.0  23.0  46.0   4.8     
   4  25     5 0.190 0.320 0.430 0.630  1.40  0.93  31.0  16.0  53.0   5.3     
   5  30     5 0.190 0.310 0.430 0.580  1.41  0.85  31.0  16.0  53.0   5.3     
   6  35     5 0.190 0.330 0.430 0.520  1.42  0.76  31.0  16.0  53.0   5.3     
   7  40     5 0.190 0.330 0.430 0.470  1.43  0.70  31.0  16.0  53.0   5.3     
   8  55    15 0.190 0.320 0.400 0.330  1.44  0.50  31.0  16.0  53.0   5.3     
   9  70    15 0.190 0.320 0.400 0.330  1.44  0.50  31.0  16.0  53.0   5.3     
  10  95    25 0.190 0.320 0.400 0.150  1.48  0.22  31.0  16.0  53.0   5.3     
  11 120    25 0.190 0.320 0.400 0.150  1.48  0.22  31.0  16.0  53.0   5.3     

 SOILDYN  YEAR DOY = 2019 169
 Additional soil properties                                                    
                Convert                                                        
    Cation Adsrp  ppm /  KSAT  SLCF  TOTN  OrgN                                
   L  Exch  Coef  kg/ha  cm/h     %     % kg/ha                                
   1   7.5   0.0   1.47   0.7   0.0  0.14   952                                
   2   7.5   0.0   0.74   0.7   0.0  0.14  1904                                
   3   7.5   0.0   1.45   0.7   0.0  0.14   966                                
   4   5.8   0.0   1.43   0.7   0.0  0.06   420                                
   5   5.8   0.0   1.42   0.7   0.0  0.06   423                                
   6   5.8   0.0   1.41   0.5   0.0  0.06   426                                
   7   5.8   0.0   1.40   0.5   0.0  0.06   429                                
   8   5.8   0.0   0.46   0.5   0.0  0.16  3456                                
   9   5.8   0.0   0.46   0.5   0.0  0.16  3456                                
  10   5.8   0.0   0.27   0.5   0.0  0.10  3700                                
  11   5.8   0.0   0.27   0.5   0.0  0.10  3700                                

 ENDRUN  YEAR DOY = 2020 209
 Normal end of run       12                                                    

******************************************************************************

*DSSAT Cropping System Model Ver. 4.8.0.019 -develop  DEC 23, 2021 14:23:38

*RUN  13        : TMS13F1376P0018           CSYCA048 UYAG1701   13
 MODEL          : CSYCA048 - Cassava
 EXPERIMENT     : UYAG1701 CS UYT_GXE
 DATA PATH      :
 TREATMENT 13   : TMS13F1376P0018           CSYCA048
  

 CSM     YEAR DOY = 2019 169
 RNMODE = B                                                                    
 PATHEX =                                                                      
 FILEX  = UYAG1701.CSX                                                         
 FILEB  = DSSBatch.V48                                                         
 FILEIO = DSSAT48.INP                                                          
 MODEL  = CSYCA048                                                             
 TRTNUM =    13                                                                

 SOILDYN  YEAR DOY = 2019 169
 The soil file has missing or invalid data.                                    
 Default values have been used for these variables:                            
   STONES, ADCOEF                                                              
 These defaults may or may not be important to your results.                   

 RETC  YEAR DOY = 2019 169
 Soil RETC parameters:                                                         
  LYR DS  SWCN   WCR    Hb Lambd  Alpha     m     n Texture                    
   1   5  0.68 0.087   7.1 0.225  0.007 0.208 1.262 SandClayLoam               
   2  15  0.68 0.087   8.1 0.231  0.007 0.211 1.268 SandClayLoam               
   3  20  0.68 0.087   5.4 0.214  0.009 0.201 1.252 SandClayLoam               
   4  25  0.68 0.087   5.4 0.214  0.009 0.201 1.252 SandClayLoam               
   5  30  0.66 0.087   3.9 0.203  0.012 0.196 1.243 SandClayLoam               
   6  35  0.52 0.087   7.1 0.225  0.007 0.208 1.262 SandClayLoam               
   7  40  0.52 0.087   7.1 0.225  0.007 0.208 1.262 SandClayLoam               
   8  55  0.52 0.087   8.3 0.214  0.007 0.199 1.248 SandClayLoam               
   9  70  0.52 0.087   8.3 0.214  0.007 0.199 1.248 SandClayLoam               
  10  95  0.52 0.087   8.3 0.214  0.007 0.199 1.248 SandClayLoam               
  11 120  0.52 0.087   8.3 0.214  0.007 0.199 1.248 SandClayLoam               

 SOILDYN  YEAR DOY = 2019 169
 Soil ID: CBAN840001                                                           
 SANDY-CLAY LOAM EL NUS: CENICAFE/CORPOICA                                     
 INCEPTISOLS.                                                                  
   SALB SWCON    CN  DMOD  SLPF SMPX                                           
   0.13  0.65  75.0  1.00  1.00 -99                                            
 Soil layer distribution method: 2                                             
      DS DLAYR    LL   DUL   SAT  Root    BD    OC  CLAY  SILT  SAND           
 LYR  cm    cm  frac  frac  frac  Grow g/cm3     %     %     %     %    pH     
   1   5     5 0.190 0.330 0.430 0.950  1.36  1.40  31.0  23.0  46.0   4.8     
   2  15    10 0.190 0.335 0.430 0.820  1.36  1.21  31.0  23.0  46.0   4.8     
   3  20     5 0.190 0.320 0.430 0.700  1.38  1.03  31.0  23.0  46.0   4.8     
   4  25     5 0.190 0.320 0.430 0.630  1.40  0.93  31.0  16.0  53.0   5.3     
   5  30     5 0.190 0.310 0.430 0.580  1.41  0.85  31.0  16.0  53.0   5.3     
   6  35     5 0.190 0.330 0.430 0.520  1.42  0.76  31.0  16.0  53.0   5.3     
   7  40     5 0.190 0.330 0.430 0.470  1.43  0.70  31.0  16.0  53.0   5.3     
   8  55    15 0.190 0.320 0.400 0.330  1.44  0.50  31.0  16.0  53.0   5.3     
   9  70    15 0.190 0.320 0.400 0.330  1.44  0.50  31.0  16.0  53.0   5.3     
  10  95    25 0.190 0.320 0.400 0.150  1.48  0.22  31.0  16.0  53.0   5.3     
  11 120    25 0.190 0.320 0.400 0.150  1.48  0.22  31.0  16.0  53.0   5.3     

 SOILDYN  YEAR DOY = 2019 169
 Additional soil properties                                                    
                Convert                                                        
    Cation Adsrp  ppm /  KSAT  SLCF  TOTN  OrgN                                
   L  Exch  Coef  kg/ha  cm/h     %     % kg/ha                                
   1   7.5   0.0   1.47   0.7   0.0  0.14   952                                
   2   7.5   0.0   0.74   0.7   0.0  0.14  1904                                
   3   7.5   0.0   1.45   0.7   0.0  0.14   966                                
   4   5.8   0.0   1.43   0.7   0.0  0.06   420                                
   5   5.8   0.0   1.42   0.7   0.0  0.06   423                                
   6   5.8   0.0   1.41   0.5   0.0  0.06   426                                
   7   5.8   0.0   1.40   0.5   0.0  0.06   429                                
   8   5.8   0.0   0.46   0.5   0.0  0.16  3456                                
   9   5.8   0.0   0.46   0.5   0.0  0.16  3456                                
  10   5.8   0.0   0.27   0.5   0.0  0.10  3700                                
  11   5.8   0.0   0.27   0.5   0.0  0.10  3700                                

 ENDRUN  YEAR DOY = 2020 209
 Normal end of run       13                                                    

******************************************************************************

*DSSAT Cropping System Model Ver. 4.8.0.019 -develop  DEC 23, 2021 14:23:38

*RUN  14        : TMS13F1400P0001           CSYCA048 UYAG1701   14
 MODEL          : CSYCA048 - Cassava
 EXPERIMENT     : UYAG1701 CS UYT_GXE
 DATA PATH      :
 TREATMENT 14   : TMS13F1400P0001           CSYCA048
  

 CSM     YEAR DOY = 2019 169
 RNMODE = B                                                                    
 PATHEX =                                                                      
 FILEX  = UYAG1701.CSX                                                         
 FILEB  = DSSBatch.V48                                                         
 FILEIO = DSSAT48.INP                                                          
 MODEL  = CSYCA048                                                             
 TRTNUM =    14                                                                

 SOILDYN  YEAR DOY = 2019 169
 The soil file has missing or invalid data.                                    
 Default values have been used for these variables:                            
   STONES, ADCOEF                                                              
 These defaults may or may not be important to your results.                   

 RETC  YEAR DOY = 2019 169
 Soil RETC parameters:                                                         
  LYR DS  SWCN   WCR    Hb Lambd  Alpha     m     n Texture                    
   1   5  0.68 0.087   7.1 0.225  0.007 0.208 1.262 SandClayLoam               
   2  15  0.68 0.087   8.1 0.231  0.007 0.211 1.268 SandClayLoam               
   3  20  0.68 0.087   5.4 0.214  0.009 0.201 1.252 SandClayLoam               
   4  25  0.68 0.087   5.4 0.214  0.009 0.201 1.252 SandClayLoam               
   5  30  0.66 0.087   3.9 0.203  0.012 0.196 1.243 SandClayLoam               
   6  35  0.52 0.087   7.1 0.225  0.007 0.208 1.262 SandClayLoam               
   7  40  0.52 0.087   7.1 0.225  0.007 0.208 1.262 SandClayLoam               
   8  55  0.52 0.087   8.3 0.214  0.007 0.199 1.248 SandClayLoam               
   9  70  0.52 0.087   8.3 0.214  0.007 0.199 1.248 SandClayLoam               
  10  95  0.52 0.087   8.3 0.214  0.007 0.199 1.248 SandClayLoam               
  11 120  0.52 0.087   8.3 0.214  0.007 0.199 1.248 SandClayLoam               

 SOILDYN  YEAR DOY = 2019 169
 Soil ID: CBAN840001                                                           
 SANDY-CLAY LOAM EL NUS: CENICAFE/CORPOICA                                     
 INCEPTISOLS.                                                                  
   SALB SWCON    CN  DMOD  SLPF SMPX                                           
   0.13  0.65  75.0  1.00  1.00 -99                                            
 Soil layer distribution method: 2                                             
      DS DLAYR    LL   DUL   SAT  Root    BD    OC  CLAY  SILT  SAND           
 LYR  cm    cm  frac  frac  frac  Grow g/cm3     %     %     %     %    pH     
   1   5     5 0.190 0.330 0.430 0.950  1.36  1.40  31.0  23.0  46.0   4.8     
   2  15    10 0.190 0.335 0.430 0.820  1.36  1.21  31.0  23.0  46.0   4.8     
   3  20     5 0.190 0.320 0.430 0.700  1.38  1.03  31.0  23.0  46.0   4.8     
   4  25     5 0.190 0.320 0.430 0.630  1.40  0.93  31.0  16.0  53.0   5.3     
   5  30     5 0.190 0.310 0.430 0.580  1.41  0.85  31.0  16.0  53.0   5.3     
   6  35     5 0.190 0.330 0.430 0.520  1.42  0.76  31.0  16.0  53.0   5.3     
   7  40     5 0.190 0.330 0.430 0.470  1.43  0.70  31.0  16.0  53.0   5.3     
   8  55    15 0.190 0.320 0.400 0.330  1.44  0.50  31.0  16.0  53.0   5.3     
   9  70    15 0.190 0.320 0.400 0.330  1.44  0.50  31.0  16.0  53.0   5.3     
  10  95    25 0.190 0.320 0.400 0.150  1.48  0.22  31.0  16.0  53.0   5.3     
  11 120    25 0.190 0.320 0.400 0.150  1.48  0.22  31.0  16.0  53.0   5.3     

 SOILDYN  YEAR DOY = 2019 169
 Additional soil properties                                                    
                Convert                                                        
    Cation Adsrp  ppm /  KSAT  SLCF  TOTN  OrgN                                
   L  Exch  Coef  kg/ha  cm/h     %     % kg/ha                                
   1   7.5   0.0   1.47   0.7   0.0  0.14   952                                
   2   7.5   0.0   0.74   0.7   0.0  0.14  1904                                
   3   7.5   0.0   1.45   0.7   0.0  0.14   966                                
   4   5.8   0.0   1.43   0.7   0.0  0.06   420                                
   5   5.8   0.0   1.42   0.7   0.0  0.06   423                                
   6   5.8   0.0   1.41   0.5   0.0  0.06   426                                
   7   5.8   0.0   1.40   0.5   0.0  0.06   429                                
   8   5.8   0.0   0.46   0.5   0.0  0.16  3456                                
   9   5.8   0.0   0.46   0.5   0.0  0.16  3456                                
  10   5.8   0.0   0.27   0.5   0.0  0.10  3700                                
  11   5.8   0.0   0.27   0.5   0.0  0.10  3700                                

 ENDRUN  YEAR DOY = 2020 209
 Normal end of run       14                                                    

******************************************************************************

*DSSAT Cropping System Model Ver. 4.8.0.019 -develop  DEC 23, 2021 14:23:38

*RUN  15        : TMS13F1461P0002           CSYCA048 UYAG1701   15
 MODEL          : CSYCA048 - Cassava
 EXPERIMENT     : UYAG1701 CS UYT_GXE
 DATA PATH      :
 TREATMENT 15   : TMS13F1461P0002           CSYCA048
  

 CSM     YEAR DOY = 2019 169
 RNMODE = B                                                                    
 PATHEX =                                                                      
 FILEX  = UYAG1701.CSX                                                         
 FILEB  = DSSBatch.V48                                                         
 FILEIO = DSSAT48.INP                                                          
 MODEL  = CSYCA048                                                             
 TRTNUM =    15                                                                

 SOILDYN  YEAR DOY = 2019 169
 The soil file has missing or invalid data.                                    
 Default values have been used for these variables:                            
   STONES, ADCOEF                                                              
 These defaults may or may not be important to your results.                   

 RETC  YEAR DOY = 2019 169
 Soil RETC parameters:                                                         
  LYR DS  SWCN   WCR    Hb Lambd  Alpha     m     n Texture                    
   1   5  0.68 0.087   7.1 0.225  0.007 0.208 1.262 SandClayLoam               
   2  15  0.68 0.087   8.1 0.231  0.007 0.211 1.268 SandClayLoam               
   3  20  0.68 0.087   5.4 0.214  0.009 0.201 1.252 SandClayLoam               
   4  25  0.68 0.087   5.4 0.214  0.009 0.201 1.252 SandClayLoam               
   5  30  0.66 0.087   3.9 0.203  0.012 0.196 1.243 SandClayLoam               
   6  35  0.52 0.087   7.1 0.225  0.007 0.208 1.262 SandClayLoam               
   7  40  0.52 0.087   7.1 0.225  0.007 0.208 1.262 SandClayLoam               
   8  55  0.52 0.087   8.3 0.214  0.007 0.199 1.248 SandClayLoam               
   9  70  0.52 0.087   8.3 0.214  0.007 0.199 1.248 SandClayLoam               
  10  95  0.52 0.087   8.3 0.214  0.007 0.199 1.248 SandClayLoam               
  11 120  0.52 0.087   8.3 0.214  0.007 0.199 1.248 SandClayLoam               

 SOILDYN  YEAR DOY = 2019 169
 Soil ID: CBAN840001                                                           
 SANDY-CLAY LOAM EL NUS: CENICAFE/CORPOICA                                     
 INCEPTISOLS.                                                                  
   SALB SWCON    CN  DMOD  SLPF SMPX                                           
   0.13  0.65  75.0  1.00  1.00 -99                                            
 Soil layer distribution method: 2                                             
      DS DLAYR    LL   DUL   SAT  Root    BD    OC  CLAY  SILT  SAND           
 LYR  cm    cm  frac  frac  frac  Grow g/cm3     %     %     %     %    pH     
   1   5     5 0.190 0.330 0.430 0.950  1.36  1.40  31.0  23.0  46.0   4.8     
   2  15    10 0.190 0.335 0.430 0.820  1.36  1.21  31.0  23.0  46.0   4.8     
   3  20     5 0.190 0.320 0.430 0.700  1.38  1.03  31.0  23.0  46.0   4.8     
   4  25     5 0.190 0.320 0.430 0.630  1.40  0.93  31.0  16.0  53.0   5.3     
   5  30     5 0.190 0.310 0.430 0.580  1.41  0.85  31.0  16.0  53.0   5.3     
   6  35     5 0.190 0.330 0.430 0.520  1.42  0.76  31.0  16.0  53.0   5.3     
   7  40     5 0.190 0.330 0.430 0.470  1.43  0.70  31.0  16.0  53.0   5.3     
   8  55    15 0.190 0.320 0.400 0.330  1.44  0.50  31.0  16.0  53.0   5.3     
   9  70    15 0.190 0.320 0.400 0.330  1.44  0.50  31.0  16.0  53.0   5.3     
  10  95    25 0.190 0.320 0.400 0.150  1.48  0.22  31.0  16.0  53.0   5.3     
  11 120    25 0.190 0.320 0.400 0.150  1.48  0.22  31.0  16.0  53.0   5.3     

 SOILDYN  YEAR DOY = 2019 169
 Additional soil properties                                                    
                Convert                                                        
    Cation Adsrp  ppm /  KSAT  SLCF  TOTN  OrgN                                
   L  Exch  Coef  kg/ha  cm/h     %     % kg/ha                                
   1   7.5   0.0   1.47   0.7   0.0  0.14   952                                
   2   7.5   0.0   0.74   0.7   0.0  0.14  1904                                
   3   7.5   0.0   1.45   0.7   0.0  0.14   966                                
   4   5.8   0.0   1.43   0.7   0.0  0.06   420                                
   5   5.8   0.0   1.42   0.7   0.0  0.06   423                                
   6   5.8   0.0   1.41   0.5   0.0  0.06   426                                
   7   5.8   0.0   1.40   0.5   0.0  0.06   429                                
[...]
   STONES, ADCOEF                                                              
 These defaults may or may not be important to your results.                   

 RETC  YEAR DOY = 2019 169
 Soil RETC parameters:                                                         
  LYR DS  SWCN   WCR    Hb Lambd  Alpha     m     n Texture                    
   1   5  0.68 0.087   7.1 0.225  0.007 0.208 1.262 SandClayLoam               
   2  15  0.68 0.087   8.1 0.231  0.007 0.211 1.268 SandClayLoam               
   3  20  0.68 0.087   5.4 0.214  0.009 0.201 1.252 SandClayLoam               
   4  25  0.68 0.087   5.4 0.214  0.009 0.201 1.252 SandClayLoam               
   5  30  0.66 0.087   3.9 0.203  0.012 0.196 1.243 SandClayLoam               
   6  35  0.52 0.087   7.1 0.225  0.007 0.208 1.262 SandClayLoam               
   7  40  0.52 0.087   7.1 0.225  0.007 0.208 1.262 SandClayLoam               
   8  55  0.52 0.087   8.3 0.214  0.007 0.199 1.248 SandClayLoam               
   9  70  0.52 0.087   8.3 0.214  0.007 0.199 1.248 SandClayLoam               
  10  95  0.52 0.087   8.3 0.214  0.007 0.199 1.248 SandClayLoam               
  11 120  0.52 0.087   8.3 0.214  0.007 0.199 1.248 SandClayLoam               

 SOILDYN  YEAR DOY = 2019 169
 Soil ID: CBAN840001                                                           
 SANDY-CLAY LOAM EL NUS: CENICAFE/CORPOICA                                     
 INCEPTISOLS.                                                                  
   SALB SWCON    CN  DMOD  SLPF SMPX                                           
   0.13  0.65  75.0  1.00  1.00 -99                                            
 Soil layer distribution method: 2                                             
      DS DLAYR    LL   DUL   SAT  Root    BD    OC  CLAY  SILT  SAND           
 LYR  cm    cm  frac  frac  frac  Grow g/cm3     %     %     %     %    pH     
   1   5     5 0.190 0.330 0.430 0.950  1.36  1.40  31.0  23.0  46.0   4.8     
   2  15    10 0.190 0.335 0.430 0.820  1.36  1.21  31.0  23.0  46.0   4.8     
   3  20     5 0.190 0.320 0.430 0.700  1.38  1.03  31.0  23.0  46.0   4.8     
   4  25     5 0.190 0.320 0.430 0.630  1.40  0.93  31.0  16.0  53.0   5.3     
   5  30     5 0.190 0.310 0.430 0.580  1.41  0.85  31.0  16.0  53.0   5.3     
   6  35     5 0.190 0.330 0.430 0.520  1.42  0.76  31.0  16.0  53.0   5.3     
   7  40     5 0.190 0.330 0.430 0.470  1.43  0.70  31.0  16.0  53.0   5.3     
   8  55    15 0.190 0.320 0.400 0.330  1.44  0.50  31.0  16.0  53.0   5.3     
   9  70    15 0.190 0.320 0.400 0.330  1.44  0.50  31.0  16.0  53.0   5.3     
  10  95    25 0.190 0.320 0.400 0.150  1.48  0.22  31.0  16.0  53.0   5.3     
  11 120    25 0.190 0.320 0.400 0.150  1.48  0.22  31.0  16.0  53.0   5.3     

 SOILDYN  YEAR DOY = 2019 169
 Additional soil properties                                                    
                Convert                                                        
    Cation Adsrp  ppm /  KSAT  SLCF  TOTN  OrgN                                
   L  Exch  Coef  kg/ha  cm/h     %     % kg/ha                                
   1   7.5   0.0   1.47   0.7   0.0  0.14   952                                
   2   7.5   0.0   0.74   0.7   0.0  0.14  1904                                
   3   7.5   0.0   1.45   0.7   0.0  0.14   966                                
   4   5.8   0.0   1.43   0.7   0.0  0.06   420                                
   5   5.8   0.0   1.42   0.7   0.0  0.06   423                                
   6   5.8   0.0   1.41   0.5   0.0  0.06   426                                
   7   5.8   0.0   1.40   0.5   0.0  0.06   429                                
   8   5.8   0.0   0.46   0.5   0.0  0.16  3456                                
   9   5.8   0.0   0.46   0.5   0.0  0.16  3456                                
  10   5.8   0.0   0.27   0.5   0.0  0.10  3700                                
  11   5.8   0.0   0.27   0.5   0.0  0.10  3700                                

 ENDRUN  YEAR DOY = 2020 209
 Normal end of run       64                                                    

******************************************************************************

*DSSAT Cropping System Model Ver. 4.8.0.019 -develop  DEC 23, 2021 14:23:48

*RUN  65        : TMS14F1310P0015           CSYCA048 UYAG1701   65
 MODEL          : CSYCA048 - Cassava
 EXPERIMENT     : UYAG1701 CS UYT_GXE
 DATA PATH      :
 TREATMENT 65   : TMS14F1310P0015           CSYCA048
  

 CSM     YEAR DOY = 2019 169
 RNMODE = B                                                                    
 PATHEX =                                                                      
 FILEX  = UYAG1701.CSX                                                         
 FILEB  = DSSBatch.V48                                                         
 FILEIO = DSSAT48.INP                                                          
 MODEL  = CSYCA048                                                             
 TRTNUM =    65                                                                

 SOILDYN  YEAR DOY = 2019 169
 The soil file has missing or invalid data.                                    
 Default values have been used for these variables:                            
   STONES, ADCOEF                                                              
 These defaults may or may not be important to your results.                   

 RETC  YEAR DOY = 2019 169
 Soil RETC parameters:                                                         
  LYR DS  SWCN   WCR    Hb Lambd  Alpha     m     n Texture                    
   1   5  0.68 0.087   7.1 0.225  0.007 0.208 1.262 SandClayLoam               
   2  15  0.68 0.087   8.1 0.231  0.007 0.211 1.268 SandClayLoam               
   3  20  0.68 0.087   5.4 0.214  0.009 0.201 1.252 SandClayLoam               
   4  25  0.68 0.087   5.4 0.214  0.009 0.201 1.252 SandClayLoam               
   5  30  0.66 0.087   3.9 0.203  0.012 0.196 1.243 SandClayLoam               
   6  35  0.52 0.087   7.1 0.225  0.007 0.208 1.262 SandClayLoam               
   7  40  0.52 0.087   7.1 0.225  0.007 0.208 1.262 SandClayLoam               
   8  55  0.52 0.087   8.3 0.214  0.007 0.199 1.248 SandClayLoam               
   9  70  0.52 0.087   8.3 0.214  0.007 0.199 1.248 SandClayLoam               
  10  95  0.52 0.087   8.3 0.214  0.007 0.199 1.248 SandClayLoam               
  11 120  0.52 0.087   8.3 0.214  0.007 0.199 1.248 SandClayLoam               

 SOILDYN  YEAR DOY = 2019 169
 Soil ID: CBAN840001                                                           
 SANDY-CLAY LOAM EL NUS: CENICAFE/CORPOICA                                     
 INCEPTISOLS.                                                                  
   SALB SWCON    CN  DMOD  SLPF SMPX                                           
   0.13  0.65  75.0  1.00  1.00 -99                                            
 Soil layer distribution method: 2                                             
      DS DLAYR    LL   DUL   SAT  Root    BD    OC  CLAY  SILT  SAND           
 LYR  cm    cm  frac  frac  frac  Grow g/cm3     %     %     %     %    pH     
   1   5     5 0.190 0.330 0.430 0.950  1.36  1.40  31.0  23.0  46.0   4.8     
   2  15    10 0.190 0.335 0.430 0.820  1.36  1.21  31.0  23.0  46.0   4.8     
   3  20     5 0.190 0.320 0.430 0.700  1.38  1.03  31.0  23.0  46.0   4.8     
   4  25     5 0.190 0.320 0.430 0.630  1.40  0.93  31.0  16.0  53.0   5.3     
   5  30     5 0.190 0.310 0.430 0.580  1.41  0.85  31.0  16.0  53.0   5.3     
   6  35     5 0.190 0.330 0.430 0.520  1.42  0.76  31.0  16.0  53.0   5.3     
   7  40     5 0.190 0.330 0.430 0.470  1.43  0.70  31.0  16.0  53.0   5.3     
   8  55    15 0.190 0.320 0.400 0.330  1.44  0.50  31.0  16.0  53.0   5.3     
   9  70    15 0.190 0.320 0.400 0.330  1.44  0.50  31.0  16.0  53.0   5.3     
  10  95    25 0.190 0.320 0.400 0.150  1.48  0.22  31.0  16.0  53.0   5.3     
  11 120    25 0.190 0.320 0.400 0.150  1.48  0.22  31.0  16.0  53.0   5.3     

 SOILDYN  YEAR DOY = 2019 169
 Additional soil properties                                                    
                Convert                                                        
    Cation Adsrp  ppm /  KSAT  SLCF  TOTN  OrgN                                
   L  Exch  Coef  kg/ha  cm/h     %     % kg/ha                                
   1   7.5   0.0   1.47   0.7   0.0  0.14   952                                
   2   7.5   0.0   0.74   0.7   0.0  0.14  1904                                
   3   7.5   0.0   1.45   0.7   0.0  0.14   966                                
   4   5.8   0.0   1.43   0.7   0.0  0.06   420                                
   5   5.8   0.0   1.42   0.7   0.0  0.06   423                                
   6   5.8   0.0   1.41   0.5   0.0  0.06   426                                
   7   5.8   0.0   1.40   0.5   0.0  0.06   429                                
   8   5.8   0.0   0.46   0.5   0.0  0.16  3456                                
   9   5.8   0.0   0.46   0.5   0.0  0.16  3456                                
  10   5.8   0.0   0.27   0.5   0.0  0.10  3700                                
  11   5.8   0.0   0.27   0.5   0.0  0.10  3700                                

 ENDRUN  YEAR DOY = 2020 209
 Normal end of run       65                                                    

******************************************************************************

*DSSAT Cropping System Model Ver. 4.8.0.019 -develop  DEC 23, 2021 14:23:48

*RUN  66        : TMS14F1311P0002           CSYCA048 UYAG1701   66
 MODEL          : CSYCA048 - Cassava
 EXPERIMENT     : UYAG1701 CS UYT_GXE
 DATA PATH      :
 TREATMENT 66   : TMS14F1311P0002           CSYCA048
  

 CSM     YEAR DOY = 2019 169
 RNMODE = B                                                                    
 PATHEX =                                                                      
 FILEX  = UYAG1701.CSX                                                         
 FILEB  = DSSBatch.V48                                                         
 FILEIO = DSSAT48.INP                                                          
 MODEL  = CSYCA048                                                             
 TRTNUM =    66                                                                

 SOILDYN  YEAR DOY = 2019 169
 The soil file has missing or invalid data.                                    
 Default values have been used for these variables:                            
   STONES, ADCOEF                                                              
 These defaults may or may not be important to your results.                   

 RETC  YEAR DOY = 2019 169
 Soil RETC parameters:                                                         
  LYR DS  SWCN   WCR    Hb Lambd  Alpha     m     n Texture                    
   1   5  0.68 0.087   7.1 0.225  0.007 0.208 1.262 SandClayLoam               
   2  15  0.68 0.087   8.1 0.231  0.007 0.211 1.268 SandClayLoam               
   3  20  0.68 0.087   5.4 0.214  0.009 0.201 1.252 SandClayLoam               
   4  25  0.68 0.087   5.4 0.214  0.009 0.201 1.252 SandClayLoam               
   5  30  0.66 0.087   3.9 0.203  0.012 0.196 1.243 SandClayLoam               
   6  35  0.52 0.087   7.1 0.225  0.007 0.208 1.262 SandClayLoam               
   7  40  0.52 0.087   7.1 0.225  0.007 0.208 1.262 SandClayLoam               
   8  55  0.52 0.087   8.3 0.214  0.007 0.199 1.248 SandClayLoam               
   9  70  0.52 0.087   8.3 0.214  0.007 0.199 1.248 SandClayLoam               
  10  95  0.52 0.087   8.3 0.214  0.007 0.199 1.248 SandClayLoam               
  11 120  0.52 0.087   8.3 0.214  0.007 0.199 1.248 SandClayLoam               

 SOILDYN  YEAR DOY = 2019 169
 Soil ID: CBAN840001                                                           
 SANDY-CLAY LOAM EL NUS: CENICAFE/CORPOICA                                     
 INCEPTISOLS.                                                                  
   SALB SWCON    CN  DMOD  SLPF SMPX                                           
   0.13  0.65  75.0  1.00  1.00 -99                                            
 Soil layer distribution method: 2                                             
      DS DLAYR    LL   DUL   SAT  Root    BD    OC  CLAY  SILT  SAND           
 LYR  cm    cm  frac  frac  frac  Grow g/cm3     %     %     %     %    pH     
   1   5     5 0.190 0.330 0.430 0.950  1.36  1.40  31.0  23.0  46.0   4.8     
   2  15    10 0.190 0.335 0.430 0.820  1.36  1.21  31.0  23.0  46.0   4.8     
   3  20     5 0.190 0.320 0.430 0.700  1.38  1.03  31.0  23.0  46.0   4.8     
   4  25     5 0.190 0.320 0.430 0.630  1.40  0.93  31.0  16.0  53.0   5.3     
   5  30     5 0.190 0.310 0.430 0.580  1.41  0.85  31.0  16.0  53.0   5.3     
   6  35     5 0.190 0.330 0.430 0.520  1.42  0.76  31.0  16.0  53.0   5.3     
   7  40     5 0.190 0.330 0.430 0.470  1.43  0.70  31.0  16.0  53.0   5.3     
   8  55    15 0.190 0.320 0.400 0.330  1.44  0.50  31.0  16.0  53.0   5.3     
   9  70    15 0.190 0.320 0.400 0.330  1.44  0.50  31.0  16.0  53.0   5.3     
  10  95    25 0.190 0.320 0.400 0.150  1.48  0.22  31.0  16.0  53.0   5.3     
  11 120    25 0.190 0.320 0.400 0.150  1.48  0.22  31.0  16.0  53.0   5.3     

 SOILDYN  YEAR DOY = 2019 169
 Additional soil properties                                                    
                Convert                                                        
    Cation Adsrp  ppm /  KSAT  SLCF  TOTN  OrgN                                
   L  Exch  Coef  kg/ha  cm/h     %     % kg/ha                                
   1   7.5   0.0   1.47   0.7   0.0  0.14   952                                
   2   7.5   0.0   0.74   0.7   0.0  0.14  1904                                
   3   7.5   0.0   1.45   0.7   0.0  0.14   966                                
   4   5.8   0.0   1.43   0.7   0.0  0.06   420                                
   5   5.8   0.0   1.42   0.7   0.0  0.06   423                                
   6   5.8   0.0   1.41   0.5   0.0  0.06   426                                
   7   5.8   0.0   1.40   0.5   0.0  0.06   429                                
   8   5.8   0.0   0.46   0.5   0.0  0.16  3456                                
   9   5.8   0.0   0.46   0.5   0.0  0.16  3456                                
  10   5.8   0.0   0.27   0.5   0.0  0.10  3700                                
  11   5.8   0.0   0.27   0.5   0.0  0.10  3700                                

 ENDRUN  YEAR DOY = 2020 209
 Normal end of run       66                                                    

******************************************************************************

*DSSAT Cropping System Model Ver. 4.8.0.019 -develop  DEC 23, 2021 14:23:48

*RUN  67        : TMS14F1312P0003           CSYCA048 UYAG1701   67
 MODEL          : CSYCA048 - Cassava
 EXPERIMENT     : UYAG1701 CS UYT_GXE
 DATA PATH      :
 TREATMENT 67   : TMS14F1312P0003           CSYCA048
  

 CSM     YEAR DOY = 2019 169
 RNMODE = B                                                                    
 PATHEX =                                                                      
 FILEX  = UYAG1701.CSX                                                         
 FILEB  = DSSBatch.V48                                                         
 FILEIO = DSSAT48.INP                                                          
 MODEL  = CSYCA048                                                             
 TRTNUM =    67                                                                

 SOILDYN  YEAR DOY = 2019 169
 The soil file has missing or invalid data.                                    
 Default values have been used for these variables:                            
   STONES, ADCOEF                                                              
 These defaults may or may not be important to your results.                   

 RETC  YEAR DOY = 2019 169
 Soil RETC parameters:                                                         
  LYR DS  SWCN   WCR    Hb Lambd  Alpha     m     n Texture                    
   1   5  0.68 0.087   7.1 0.225  0.007 0.208 1.262 SandClayLoam               
   2  15  0.68 0.087   8.1 0.231  0.007 0.211 1.268 SandClayLoam               
   3  20  0.68 0.087   5.4 0.214  0.009 0.201 1.252 SandClayLoam               
   4  25  0.68 0.087   5.4 0.214  0.009 0.201 1.252 SandClayLoam               
   5  30  0.66 0.087   3.9 0.203  0.012 0.196 1.243 SandClayLoam               
   6  35  0.52 0.087   7.1 0.225  0.007 0.208 1.262 SandClayLoam               
   7  40  0.52 0.087   7.1 0.225  0.007 0.208 1.262 SandClayLoam               
   8  55  0.52 0.087   8.3 0.214  0.007 0.199 1.248 SandClayLoam               
   9  70  0.52 0.087   8.3 0.214  0.007 0.199 1.248 SandClayLoam               
  10  95  0.52 0.087   8.3 0.214  0.007 0.199 1.248 SandClayLoam               
  11 120  0.52 0.087   8.3 0.214  0.007 0.199 1.248 SandClayLoam               

 SOILDYN  YEAR DOY = 2019 169
 Soil ID: CBAN840001                                                           
 SANDY-CLAY LOAM EL NUS: CENICAFE/CORPOICA                                     
 INCEPTISOLS.                                                                  
   SALB SWCON    CN  DMOD  SLPF SMPX                                           
   0.13  0.65  75.0  1.00  1.00 -99                                            
 Soil layer distribution method: 2                                             
      DS DLAYR    LL   DUL   SAT  Root    BD    OC  CLAY  SILT  SAND           
 LYR  cm    cm  frac  frac  frac  Grow g/cm3     %     %     %     %    pH     
   1   5     5 0.190 0.330 0.430 0.950  1.36  1.40  31.0  23.0  46.0   4.8     
   2  15    10 0.190 0.335 0.430 0.820  1.36  1.21  31.0  23.0  46.0   4.8     
   3  20     5 0.190 0.320 0.430 0.700  1.38  1.03  31.0  23.0  46.0   4.8     
   4  25     5 0.190 0.320 0.430 0.630  1.40  0.93  31.0  16.0  53.0   5.3     
   5  30     5 0.190 0.310 0.430 0.580  1.41  0.85  31.0  16.0  53.0   5.3     
   6  35     5 0.190 0.330 0.430 0.520  1.42  0.76  31.0  16.0  53.0   5.3     
   7  40     5 0.190 0.330 0.430 0.470  1.43  0.70  31.0  16.0  53.0   5.3     
   8  55    15 0.190 0.320 0.400 0.330  1.44  0.50  31.0  16.0  53.0   5.3     
   9  70    15 0.190 0.320 0.400 0.330  1.44  0.50  31.0  16.0  53.0   5.3     
  10  95    25 0.190 0.320 0.400 0.150  1.48  0.22  31.0  16.0  53.0   5.3     
  11 120    25 0.190 0.320 0.400 0.150  1.48  0.22  31.0  16.0  53.0   5.3     

 SOILDYN  YEAR DOY = 2019 169
 Additional soil properties                                                    
                Convert                                                        
    Cation Adsrp  ppm /  KSAT  SLCF  TOTN  OrgN                                
   L  Exch  Coef  kg/ha  cm/h     %     % kg/ha                                
   1   7.5   0.0   1.47   0.7   0.0  0.14   952                                
   2   7.5   0.0   0.74   0.7   0.0  0.14  1904                                
   3   7.5   0.0   1.45   0.7   0.0  0.14   966                                
   4   5.8   0.0   1.43   0.7   0.0  0.06   420                                
   5   5.8   0.0   1.42   0.7   0.0  0.06   423                                
   6   5.8   0.0   1.41   0.5   0.0  0.06   426                                
   7   5.8   0.0   1.40   0.5   0.0  0.06   429                                
   8   5.8   0.0   0.46   0.5   0.0  0.16  3456                                
   9   5.8   0.0   0.46   0.5   0.0  0.16  3456                                
  10   5.8   0.0   0.27   0.5   0.0  0.10  3700                                
  11   5.8   0.0   0.27   0.5   0.0  0.10  3700                                

 ENDRUN  YEAR DOY = 2020 209
 Normal end of run       67                                                    
