*SIMULATION OVERVIEW FILE
  

*DSSAT Cropping System Model Ver. 4.8.0.019 -develop  DEC 23, 2021 14:23:35

*RUN   1        : IITA-TMS-IBA000070        CSYCA048 UYAG1701    1
 MODEL          : CSYCA048 - Cassava
 EXPERIMENT     : UYAG1701 CS UYT_GXE
 DATA PATH      :
 TREATMENT  1   : IITA-TMS-IBA000070        CSYCA048


 CROP           : Cassava          CULTIVAR : IITA-TMS-IBA0000 ECOTYPE :990016
 STARTING DATE  : JUN 18 2019
 PLANTING DATE  : JUN 18 2019      PLANTS/m2 :     1.0    ROW SPACING : 100.cm
 HARVEST DATE   : JUL 27 2020
 WEATHER        : UYAB   2019
 SOIL           : CBAN840001     TEXTURE : SL    - Sandy-Clay Loam EL NUS: C
 SOIL INITIAL C : DEPTH:120cm EXTR. H2O:158.5mm  NO3:  0.0kg/ha  NH4:  0.0kg/ha
 WATER BALANCE  : AUTOMATIC IRRIGATION - REFILL PROFILE
 IRRIGATION     : AUTOMATIC [SOIL DEPTH: 0.30 m 50.%]
 NITROGEN BAL.  : NOT SIMULATED ; NO N-STRESS
 N-FERTILIZER   :
 RESIDUE/MANURE :
 ENVIRONM. OPT. : DAYL=    0.00  SRAD=    0.00  TMAX=    0.00  TMIN=    0.00
                  RAIN=    0.00  CO2 =    0.00  DEW =    0.00  WIND=    0.00
 SIMULATION OPT : WATER   :Y  NITROGEN:N  N-FIX:N  PHOSPH :N  PESTS  :N
                  PHOTO   :R  ET      :R  INFIL:S  HYDROL :R  SOM    :G
                  CO2 411ppm  NSWIT   :1  EVAP :S  SOIL   :2  STEMP  :D
 MANAGEMENT OPT : PLANTING:R  IRRIG   :A  FERT :N  RESIDUE:N  HARVEST:R
                  WEATHER :M  TILLAGE :Y

*SUMMARY OF SOIL AND GENETIC INPUT PARAMETERS

   SOIL LOWER UPPER   SAT  EXTR  INIT   ROOT   BULK     pH    NO3    NH4    ORG
  DEPTH LIMIT LIMIT    SW    SW    SW   DIST   DENS                          C
   cm   cm3/cm3    cm3/cm3    cm3/cm3         g/cm3         ugN/g  ugN/g     %
-------------------------------------------------------------------------------
  0-  5 0.190 0.330 0.430 0.140 0.330   0.95   1.36   4.80   0.00   0.00   1.40
  5- 15 0.190 0.335 0.430 0.145 0.335   0.82   1.36   4.80   0.00   0.00   1.21
 15- 20 0.190 0.320 0.430 0.130 0.320   0.70   1.38   4.80   0.00   0.00   1.03
 20- 25 0.190 0.320 0.430 0.130 0.320   0.63   1.40   5.30   0.00   0.00   0.93
 25- 30 0.190 0.310 0.430 0.120 0.310   0.58   1.41   5.30   0.00   0.00   0.85
 30- 35 0.190 0.330 0.430 0.140 0.330   0.52   1.42   5.30   0.00   0.00   0.76
 35- 40 0.190 0.330 0.430 0.140 0.330   0.47   1.43   5.30   0.00   0.00   0.70
 40- 55 0.190 0.320 0.400 0.130 0.320   0.33   1.44   5.30   0.00   0.00   0.50
 55- 70 0.190 0.320 0.400 0.130 0.320   0.33   1.44   5.30   0.00   0.00   0.50
 70- 95 0.190 0.320 0.400 0.130 0.320   0.15   1.48   5.30   0.00   0.00   0.22
 95-120 0.190 0.320 0.400 0.130 0.320   0.15   1.48   5.30   0.00   0.00   0.22

TOT-120  22.8  38.6  49.2  15.8  38.6  <--cm   -  kg/ha-->    0.0    0.0      0
SOIL ALBEDO    : 0.13      EVAPORATION LIMIT :11.50         MIN. FACTOR  : 1.00
RUNOFF CURVE # :75.00      DRAINAGE RATE     : 0.65         FERT. FACTOR : 1.00

 Cassava          CULTIVAR: UC0020-IITA-TMS-IBA0000   ECOTYPE: 990016
  B01ND B12ND B23ND B34ND BR1FX BR2FX BR3FX BR4FX
  250.  200.  200.  200.  2.70  2.70  2.00  1.50
  LAXS  SLAS LLIFA LPEFR LNSLP NODWT NODLT
 350.0  220.1000.0   0.3  1.20  4.00  2.00


*SIMULATED CROP AND SOIL STATUS AT MAIN DEVELOPMENT STAGES
  
 RUN NO.      1   UYT_GXE                                                     

 ...... DATE ....... GROWTH STAGE    BIOMASS   LEAF       CROP N      STRESS
 YEARDOY DOM MON DAP ............... kg/ha  AREA NUMBER kg/ha    %   H2O     N
 2019231  19 Aug  62 1 1stBranch      1373 0.786   52.3    0 -99.0  0.00  0.00
 2019273  30 Sep 104 2 2ndBranch      3404 2.328   85.0    0 -99.0  0.00  0.00
 2019317  13 Nov 148 3 3rdBranch      4952 2.477  113.1    0 -99.0  0.00  0.00
 2020009   9 Jan 205 4 4thBranch      6338 1.683  137.1    0 -99.0  0.02  0.00
 2020083  23 Mar 279 5 5thBranch      7816 0.795  159.5    0 -99.0  0.07  0.00
 2020154   2 Jun 350 6 6thBranch      9506 0.820  179.9    0 -99.0  0.03  0.00
 2020198  16 Jul 394 7 7thBranch     10566 1.045  191.6    0 -99.0  0.00  0.00
 2020209  27 Jul 405 * Harvest       13193 1.101  194.3    0 -99.0  0.00  0.00
  
 BIOMASS  = Above-ground dry weight (Excl.seed;kg/ha)
 LEAF AREA  = Leaf area index (m2/m2)
 LEAF NUMBER  = Leaf number produced on main axis
 CROP N  = Above-ground N (Excl.seed;kg/ha)
 CROP N%  = Above-ground N concentration(%)
 H2O STRESS = Photosynthesis stress, prior to stage (0=none,1=max)
 N STRESS = Photosynthesis stress, prior to stage (0=none,1=max)
  

*MAIN GROWTH AND DEVELOPMENT VARIABLES

@     VARIABLE                           SIMULATED   MEASURED
      --------                           ---------   --------
      Germination  (dap)                      8        -99
      Emergence    (dap)                      8        -99
      1stBranch    (dap)                     62        -99
      2ndBranch    (dap)                    104        -99
      3rdBranch    (dap)                    148        -99
      4thBranch    (dap)                    205        -99
      5thBranch    (dap)                    279        -99
      6thBranch    (dap)                    350        -99
      7thBranch    (dap)                    394        -99
      Harvest      (dap)                  13193      12289
      AboveGround (kg dm/ha)              11972      10122
      Roots+seed residue (kg dm/ha)         598        -99
      Senesced (kg dm/ha)                  2764        -99
      Product (kg dm/ha)                  13193      12289
      AboveGroundVegetative (kg dm/ha)    11972      10122
      HarvestIndex (ratio)                 0.54       0.55
      Reserves (kg dm/ha)                  1314        -99
      Product unit wt (g dm)                -99        -99
      Product number (/m2)                  -99        -99
      Product number (/shoot)             -99.0      -99.0
      Maximum leaf area index               2.8    47439.0
      Final leaf number (one axis)        194.3      -99.0
      Assimilated N (kg/ha)               -99.0      -99.0
      AboveGround N (kg/ha)               -99.0      -99.0
      Root N (kg/ha)                      -99.0      -99.0
      Senesced N (kg/ha)                    0.0      -99.0
      Product N (kg/ha)                   -99.0      -99.0
      AboveGroundVegetative N (kg/ha)       0.0      -99.0
      N HarvestIndex (ratio)             -99.00     -99.00
      Product N (% dm)                    -99.0      -99.0
      AboveGroundVegetative N (% dm)      -99.0      -99.0

*ENVIRONMENTAL AND STRESS FACTORS

|-------Branching tier-------|-------------Environment--------------|----------------Stress-----------------|
                              |--------Average-------|---Cumulative--|         (0=Min, 1=Max Stress)         |
                         Time  Temp  Temp Solar Photop         Evapo |----Water---|--Nitrogen--|--Phosphorus-|
                         Span   Max   Min   Rad  [day]   Rain  Trans  Photo         Photo         Photo
                         days     C     C MJ/m2     hr     mm     mm  synth Growth  synth Growth  synth Growth
--------------------------------------------------------------------------------------------------------------
 Germinate  - 1stBranch    54  28.8  23.2  16.6  12.44  223.9  194.3  0.000  0.000  0.000  0.000 -99.00 -99.00
 1stBranch  - 2ndBranch    42  29.9  22.9  17.4  12.11  443.1  183.5  0.000  0.000  0.000  0.000 -99.00 -99.00
 2ndBranch  - 3rdBranch    44  31.3  22.7  17.6  11.74  784.6  189.6  0.000  0.001  0.000  0.000 -99.00 -99.00
 3rdBranch  - 4thBranch    57  34.2  20.2  19.2  11.49   10.3  251.6  0.021  0.186  0.000  0.000 -99.00 -99.00
 4thBranch  - 5thBranch    74  36.1  21.8  20.1  11.72   19.2  289.8  0.074  0.324  0.000  0.000 -99.00 -99.00
 5thBranch  - 6thBranch    71  34.8  25.2  20.0  12.29  329.1  255.3  0.034  0.236  0.000  0.000 -99.00 -99.00
 6thBranch  - 7thBranch    44  31.2  23.4  17.6  12.53  220.7  158.8  0.000  0.000  0.000  0.000 -99.00 -99.00
 7thBranch  - 8thBranch    12  29.4  22.8  16.1  12.46   31.4   38.8  0.000  0.000  0.000  0.000 -99.00 -99.00
 16thBranch - Harvest       0 -99.0 -99.0 -99.0 -99.00    0.0    0.0  0.000  0.000  0.000  0.000 -99.00 -99.00
  
 1stBranch  - Harvest     398  32.7  22.8  18.5  12.04 2062.3 1561.6  0.023  0.129  0.000  0.000 -99.00 -99.00
--------------------------------------------------------------------------------------------------------------


*RESOURCE PRODUCTIVITY

 Growing season length: 398 days 

 Precipitation during growth season       2062.3 mm[rain]
   Dry Matter Productivity                  0.58 kg[DM]/m3[rain]          =    5.8 kg[DM]/ha per mm[rain]
   Yield Productivity                       0.64 kg[Sroot yield]/m3[rain] =    6.4 kg[yield]/ha per mm[rain]

 Evapotranspiration during growth season  1561.6 mm[ET]
   Dry Matter Productivity                  0.77 kg[DM]/m3[ET]            =    7.7 kg[DM]/ha per mm[ET]
   Yield Productivity                       0.84 kg[Sroot yield]/m3[ET]   =    8.4 kg[yield]/ha per mm[ET]

 Transpiration during growth season        855.2 mm[EP]
   Dry Matter Productivity                  1.40 kg[DM]/m3[EP]            =   14.0 kg[DM]/ha per mm[EP]
   Yield Productivity                       1.54 kg[Sroot yield]/m3[EP]   =   15.4 kg[yield]/ha per mm[EP]

 Irrigation during growing season          487.4 mm[irrig]
   Dry Matter Productivity                  2.46 kg[DM]/m3[irrig]         =   24.6 kg[DM]/ha per mm[irrig]
   Yield Productivity                       2.71 kg[Sroot yield]/m3[irrig]=   27.1 kg[yield]/ha per mm[irrig]

--------------------------------------------------------------------------------------------------------------

          CASSAVA YIELD :    13193 kg/ha    [Dry weight] 

**************************************************************************************************************
  

*DSSAT Cropping System Model Ver. 4.8.0.019 -develop  DEC 23, 2021 14:23:35

*RUN   2        : IITA-TMS-IBA30572         CSYCA048 UYAG1701    2
 MODEL          : CSYCA048 - Cassava
 EXPERIMENT     : UYAG1701 CS UYT_GXE
 DATA PATH      :
 TREATMENT  2   : IITA-TMS-IBA30572         CSYCA048


 CROP           : Cassava          CULTIVAR : IITA-TMS-IBA3057 ECOTYPE :990016
 STARTING DATE  : JUN 18 2019
 PLANTING DATE  : JUN 18 2019      PLANTS/m2 :     1.0    ROW SPACING : 100.cm
 HARVEST DATE   : JUL 27 2020
 WEATHER        : UYAB   2019
 SOIL           : CBAN840001     TEXTURE : SL    - Sandy-Clay Loam EL NUS: C
 SOIL INITIAL C : DEPTH:120cm EXTR. H2O:158.5mm  NO3:  0.0kg/ha  NH4:  0.0kg/ha
 WATER BALANCE  : AUTOMATIC IRRIGATION - REFILL PROFILE
 IRRIGATION     : AUTOMATIC [SOIL DEPTH: 0.30 m 50.%]
 NITROGEN BAL.  : NOT SIMULATED ; NO N-STRESS
 N-FERTILIZER   :
 RESIDUE/MANURE :
 ENVIRONM. OPT. : DAYL=    0.00  SRAD=    0.00  TMAX=    0.00  TMIN=    0.00
                  RAIN=    0.00  CO2 =    0.00  DEW =    0.00  WIND=    0.00
 SIMULATION OPT : WATER   :Y  NITROGEN:N  N-FIX:N  PHOSPH :N  PESTS  :N
                  PHOTO   :R  ET      :R  INFIL:S  HYDROL :R  SOM    :G
                  CO2 411ppm  NSWIT   :1  EVAP :S  SOIL   :2  STEMP  :D
 MANAGEMENT OPT : PLANTING:R  IRRIG   :A  FERT :N  RESIDUE:N  HARVEST:R
                  WEATHER :M  TILLAGE :Y

*SUMMARY OF SOIL AND GENETIC INPUT PARAMETERS

   SOIL LOWER UPPER   SAT  EXTR  INIT   ROOT   BULK     pH    NO3    NH4    ORG
  DEPTH LIMIT LIMIT    SW    SW    SW   DIST   DENS                          C
   cm   cm3/cm3    cm3/cm3    cm3/cm3         g/cm3         ugN/g  ugN/g     %
-------------------------------------------------------------------------------
  0-  5 0.190 0.330 0.430 0.140 0.330   0.95   1.36   4.80   0.00   0.00   1.40
  5- 15 0.190 0.335 0.430 0.145 0.335   0.82   1.36   4.80   0.00   0.00   1.21
 15- 20 0.190 0.320 0.430 0.130 0.320   0.70   1.38   4.80   0.00   0.00   1.03
 20- 25 0.190 0.320 0.430 0.130 0.320   0.63   1.40   5.30   0.00   0.00   0.93
 25- 30 0.190 0.310 0.430 0.120 0.310   0.58   1.41   5.30   0.00   0.00   0.85
 30- 35 0.190 0.330 0.430 0.140 0.330   0.52   1.42   5.30   0.00   0.00   0.76
 35- 40 0.190 0.330 0.430 0.140 0.330   0.47   1.43   5.30   0.00   0.00   0.70
 40- 55 0.190 0.320 0.400 0.130 0.320   0.33   1.44   5.30   0.00   0.00   0.50
 55- 70 0.190 0.320 0.400 0.130 0.320   0.33   1.44   5.30   0.00   0.00   0.50
 70- 95 0.190 0.320 0.400 0.130 0.320   0.15   1.48   5.30   0.00   0.00   0.22
 95-120 0.190 0.320 0.400 0.130 0.320   0.15   1.48   5.30   0.00   0.00   0.22

TOT-120  22.8  38.6  49.2  15.8  38.6  <--cm   -  kg/ha-->    0.0    0.0      0
SOIL ALBEDO    : 0.13      EVAPORATION LIMIT :11.50         MIN. FACTOR  : 1.00
RUNOFF CURVE # :75.00      DRAINAGE RATE     : 0.65         FERT. FACTOR : 1.00

 Cassava          CULTIVAR: UC0021-IITA-TMS-IBA3057   ECOTYPE: 990016
  B01ND B12ND B23ND B34ND BR1FX BR2FX BR3FX BR4FX
  250.  200.  200.  200.  2.70  2.70  2.00  1.50
  LAXS  SLAS LLIFA LPEFR LNSLP NODWT NODLT
 350.0  220.1000.0   0.3  1.20  4.00  2.00


*SIMULATED CROP AND SOIL STATUS AT MAIN DEVELOPMENT STAGES
  
 RUN NO.      2   UYT_GXE                                                     

 ...... DATE ....... GROWTH STAGE    BIOMASS   LEAF       CROP N      STRESS
 YEARDOY DOM MON DAP ............... kg/ha  AREA NUMBER kg/ha    %   H2O     N
 2019231  19 Aug  62 1 1stBranch      1373 0.786   52.3    0 -99.0  0.00  0.00
 2019273  30 Sep 104 2 2ndBranch      3404 2.328   85.0    0 -99.0  0.00  0.00
 2019317  13 Nov 148 3 3rdBranch      4952 2.477  113.1    0 -99.0  0.00  0.00
 2020009   9 Jan 205 4 4thBranch      6338 1.683  137.1    0 -99.0  0.02  0.00
 2020083  23 Mar 279 5 5thBranch      7816 0.795  159.5    0 -99.0  0.07  0.00
 2020154   2 Jun 350 6 6thBranch      9506 0.820  179.9    0 -99.0  0.03  0.00
 2020198  16 Jul 394 7 7thBranch     10566 1.045  191.6    0 -99.0  0.00  0.00
 2020209  27 Jul 405 * Harvest       13193 1.101  194.3    0 -99.0  0.00  0.00
  

*MAIN GROWTH AND DEVELOPMENT VARIABLES

@     VARIABLE                           SIMULATED   MEASURED
      --------                           ---------   --------
      Germination  (dap)                      8        -99
      Emergence    (dap)                      8        -99
      1stBranch    (dap)                     62        -99
      2ndBranch    (dap)                    104        -99
      3rdBranch    (dap)                    148        -99
      4thBranch    (dap)                    205        -99
      5thBranch    (dap)                    279        -99
      6thBranch    (dap)                    350        -99
      7thBranch    (dap)                    394        -99
      Harvest      (dap)                  13193       8911
      AboveGround (kg dm/ha)              11972      13628
      Roots+seed residue (kg dm/ha)         598        -99
      Senesced (kg dm/ha)                  2764        -99
      Product (kg dm/ha)                  13193       8911
      AboveGroundVegetative (kg dm/ha)    11972      13628
      HarvestIndex (ratio)                 0.54       0.40
      Reserves (kg dm/ha)                  1314        -99
      Product unit wt (g dm)                -99        -99
      Product number (/m2)                  -99        -99
      Product number (/shoot)             -99.0      -99.0
      Maximum leaf area index               2.8    27943.0
      Final leaf number (one axis)        194.3      -99.0
      Assimilated N (kg/ha)               -99.0      -99.0
      AboveGround N (kg/ha)               -99.0      -99.0
      Root N (kg/ha)                      -99.0      -99.0
      Senesced N (kg/ha)                    0.0      -99.0
      Product N (kg/ha)                   -99.0      -99.0
      AboveGroundVegetative N (kg/ha)       0.0      -99.0
      N HarvestIndex (ratio)             -99.00     -99.00
      Product N (% dm)                    -99.0      -99.0
      AboveGroundVegetative N (% dm)      -99.0      -99.0

*ENVIRONMENTAL AND STRESS FACTORS

|-------Branching tier-------|-------------Environment--------------|----------------Stress-----------------|
                              |--------Average-------|---Cumulative--|         (0=Min, 1=Max Stress)         |
                         Time  Temp  Temp Solar Photop         Evapo |----Water---|--Nitrogen--|--Phosphorus-|
                         Span   Max   Min   Rad  [day]   Rain  Trans  Photo         Photo         Photo
                         days     C     C MJ/m2     hr     mm     mm  synth Growth  synth Growth  synth Growth
--------------------------------------------------------------------------------------------------------------
 Germinate  - 1stBranch    54  28.8  23.2  16.6  12.44  223.9  388.5  0.000  0.000  0.000  0.000 -99.00 -99.00
 1stBranch  - 2ndBranch    42  29.9  22.9  17.4  12.11  443.1  367.0  0.000  0.000  0.000  0.000 -99.00 -99.00
 2ndBranch  - 3rdBranch    44  31.3  22.7  17.6  11.74  784.6  379.2  0.000  0.001  0.000  0.000 -99.00 -99.00
 3rdBranch  - 4thBranch    57  34.2  20.2  19.2  11.49   10.3  503.2  0.021  0.186  0.000  0.000 -99.00 -99.00
 4thBranch  - 5thBranch    74  36.1  21.8  20.1  11.72   19.2  579.5  0.074  0.324  0.000  0.000 -99.00 -99.00
 5thBranch  - 6thBranch    71  34.8  25.2  20.0  12.29  329.1  510.6  0.034  0.236  0.000  0.000 -99.00 -99.00
 6thBranch  - 7thBranch    44  31.2  23.4  17.6  12.53  220.7  317.6  0.000  0.000  0.000  0.000 -99.00 -99.00
 7thBranch  - 8thBranch    12  29.4  22.8  16.1  12.46   31.4   77.5  0.000  0.000  0.000  0.000 -99.00 -99.00
 16thBranch - Harvest       0 -99.0 -99.0 -99.0 -99.00    0.0    0.0  0.000  0.000  0.000  0.000 -99.00 -99.00
  
 1stBranch  - Harvest     398  32.7  22.8  18.5  12.04 2062.3 1561.6  0.023  0.129  0.000  0.000 -99.00 -99.00
--------------------------------------------------------------------------------------------------------------


*RESOURCE PRODUCTIVITY

 Growing season length: 398 days 

 Precipitation during growth season       2062.3 mm[rain]
   Dry Matter Productivity                  0.58 kg[DM]/m3[rain]          =    5.8 kg[DM]/ha per mm[rain]
   Yield Productivity                       0.64 kg[Sroot yield]/m3[rain] =    6.4 kg[yield]/ha per mm[rain]

 Evapotranspiration during growth season  1561.6 mm[ET]
   Dry Matter Productivity                  0.77 kg[DM]/m3[ET]            =    7.7 kg[DM]/ha per mm[ET]
   Yield Productivity                       0.84 kg[Sroot yield]/m3[ET]   =    8.4 kg[yield]/ha per mm[ET]

 Transpiration during growth season        855.2 mm[EP]
   Dry Matter Productivity                  1.40 kg[DM]/m3[EP]            =   14.0 kg[DM]/ha per mm[EP]
   Yield Productivity                       1.54 kg[Sroot yield]/m3[EP]   =   15.4 kg[yield]/ha per mm[EP]

 Irrigation during growing season          487.4 mm[irrig]
   Dry Matter Productivity                  2.46 kg[DM]/m3[irrig]         =   24.6 kg[DM]/ha per mm[irrig]
   Yield Productivity                       2.71 kg[Sroot yield]/m3[irrig]=   27.1 kg[yield]/ha per mm[irrig]

--------------------------------------------------------------------------------------------------------------

          CASSAVA YIELD :    13193 kg/ha    [Dry weight] 

**************************************************************************************************************
  

*DSSAT Cropping System Model Ver. 4.8.0.019 -develop  DEC 23, 2021 14:23:36

*RUN   3        : IITA-TMS-IBA980581        CSYCA048 UYAG1701    3
 MODEL          : CSYCA048 - Cassava
 EXPERIMENT     : UYAG1701 CS UYT_GXE
 DATA PATH      :
 TREATMENT  3   : IITA-TMS-IBA980581        CSYCA048


 CROP           : Cassava          CULTIVAR : IITA-TMS-IBA9805 ECOTYPE :990016
 STARTING DATE  : JUN 18 2019
 PLANTING DATE  : JUN 18 2019      PLANTS/m2 :     1.0    ROW SPACING : 100.cm
 HARVEST DATE   : JUL 27 2020
 WEATHER        : UYAB   2019
 SOIL           : CBAN840001     TEXTURE : SL    - Sandy-Clay Loam EL NUS: C
 SOIL INITIAL C : DEPTH:120cm EXTR. H2O:158.5mm  NO3:  0.0kg/ha  NH4:  0.0kg/ha
 WATER BALANCE  : AUTOMATIC IRRIGATION - REFILL PROFILE
 IRRIGATION     : AUTOMATIC [SOIL DEPTH: 0.30 m 50.%]
 NITROGEN BAL.  : NOT SIMULATED ; NO N-STRESS
 N-FERTILIZER   :
 RESIDUE/MANURE :
 ENVIRONM. OPT. : DAYL=    0.00  SRAD=    0.00  TMAX=    0.00  TMIN=    0.00
                  RAIN=    0.00  CO2 =    0.00  DEW =    0.00  WIND=    0.00
 SIMULATION OPT : WATER   :Y  NITROGEN:N  N-FIX:N  PHOSPH :N  PESTS  :N
                  PHOTO   :R  ET      :R  INFIL:S  HYDROL :R  SOM    :G
                  CO2 411ppm  NSWIT   :1  EVAP :S  SOIL   :2  STEMP  :D
 MANAGEMENT OPT : PLANTING:R  IRRIG   :A  FERT :N  RESIDUE:N  HARVEST:R
                  WEATHER :M  TILLAGE :Y

*SUMMARY OF SOIL AND GENETIC INPUT PARAMETERS

   SOIL LOWER UPPER   SAT  EXTR  INIT   ROOT   BULK     pH    NO3    NH4    ORG
  DEPTH LIMIT LIMIT    SW    SW    SW   DIST   DENS                          C
   cm   cm3/cm3    cm3/cm3    cm3/cm3         g/cm3         ugN/g  ugN/g     %
-------------------------------------------------------------------------------
  0-  5 0.190 0.330 0.430 0.140 0.330   0.95   1.36   4.80   0.00   0.00   1.40
  5- 15 0.190 0.335 0.430 0.145 0.335   0.82   1.36   4.80   0.00   0.00   1.21
 15- 20 0.190 0.320 0.430 0.130 0.320   0.70   1.38   4.80   0.00   0.00   1.03
 20- 25 0.190 0.320 0.430 0.130 0.320   0.63   1.40   5.30   0.00   0.00   0.93
 25- 30 0.190 0.310 0.430 0.120 0.310   0.58   1.41   5.30   0.00   0.00   0.85
 30- 35 0.190 0.330 0.430 0.140 0.330   0.52   1.42   5.30   0.00   0.00   0.76
 35- 40 0.190 0.330 0.430 0.140 0.330   0.47   1.43   5.30   0.00   0.00   0.70
 40- 55 0.190 0.320 0.400 0.130 0.320   0.33   1.44   5.30   0.00   0.00   0.50
 55- 70 0.190 0.320 0.400 0.130 0.320   0.33   1.44   5.30   0.00   0.00   0.50
 70- 95 0.190 0.320 0.400 0.130 0.320   0.15   1.48   5.30   0.00   0.00   0.22
 95-120 0.190 0.320 0.400 0.130 0.320   0.15   1.48   5.30   0.00   0.00   0.22

TOT-120  22.8  38.6  49.2  15.8  38.6  <--cm   -  kg/ha-->    0.0    0.0      0
SOIL ALBEDO    : 0.13      EVAPORATION LIMIT :11.50         MIN. FACTOR  : 1.00
RUNOFF CURVE # :75.00      DRAINAGE RATE     : 0.65         FERT. FACTOR : 1.00

 Cassava          CULTIVAR: UC0022-IITA-TMS-IBA9805   ECOTYPE: 990016
  B01ND B12ND B23ND B34ND BR1FX BR2FX BR3FX BR4FX
  250.  200.  200.  200.  2.70  2.70  2.00  1.50
  LAXS  SLAS LLIFA LPEFR LNSLP NODWT NODLT
 350.0  220.1000.0   0.3  1.20  4.00  2.00


*SIMULATED CROP AND SOIL STATUS AT MAIN DEVELOPMENT STAGES
  
 RUN NO.      3   UYT_GXE                                                     

 ...... DATE ....... GROWTH STAGE    BIOMASS   LEAF       CROP N      STRESS
 YEARDOY DOM MON DAP ............... kg/ha  AREA NUMBER kg/ha    %   H2O     N
 2019231  19 Aug  62 1 1stBranch      1373 0.786   52.3    0 -99.0  0.00  0.00
 2019273  30 Sep 104 2 2ndBranch      3404 2.328   85.0    0 -99.0  0.00  0.00
 2019317  13 Nov 148 3 3rdBranch      4952 2.477  113.1    0 -99.0  0.00  0.00
 2020009   9 Jan 205 4 4thBranch      6338 1.683  137.1    0 -99.0  0.02  0.00
 2020083  23 Mar 279 5 5thBranch      7816 0.795  159.5    0 -99.0  0.07  0.00
 2020154   2 Jun 350 6 6thBranch      9506 0.820  179.9    0 -99.0  0.03  0.00
 2020198  16 Jul 394 7 7thBranch     10566 1.045  191.6    0 -99.0  0.00  0.00
 2020209  27 Jul 405 * Harvest       13193 1.101  194.3    0 -99.0  0.00  0.00
  

*MAIN GROWTH AND DEVELOPMENT VARIABLES

@     VARIABLE                           SIMULATED   MEASURED
      --------                           ---------   --------
      Germination  (dap)                      8        -99
      Emergence    (dap)                      8        -99
      1stBranch    (dap)                     62        -99
      2ndBranch    (dap)                    104        -99
      3rdBranch    (dap)                    148        -99
      4thBranch    (dap)                    205        -99
      5thBranch    (dap)                    279        -99
      6thBranch    (dap)                    350        -99
      7thBranch    (dap)                    394        -99
      Harvest      (dap)                  13193       8661
      AboveGround (kg dm/ha)              11972       8958
      Roots+seed residue (kg dm/ha)         598        -99
      Senesced (kg dm/ha)                  2764        -99
      Product (kg dm/ha)                  13193       8661
      AboveGroundVegetative (kg dm/ha)    11972       8958
      HarvestIndex (ratio)                 0.54       0.49
      Reserves (kg dm/ha)                  1314        -99
      Product unit wt (g dm)                -99        -99
      Product number (/m2)                  -99        -99
      Product number (/shoot)             -99.0      -99.0
      Maximum leaf area index               2.8    44387.0
      Final leaf number (one axis)        194.3      -99.0
      Assimilated N (kg/ha)               -99.0      -99.0
      AboveGround N (kg/ha)               -99.0      -99.0
      Root N (kg/ha)                      -99.0      -99.0
      Senesced N (kg/ha)                    0.0      -99.0
      Product N (kg/ha)                   -99.0      -99.0
      AboveGroundVegetative N (kg/ha)       0.0      -99.0
      N HarvestIndex (ratio)             -99.00     -99.00
      Product N (% dm)                    -99.0      -99.0
      AboveGroundVegetative N (% dm)      -99.0      -99.0

*ENVIRONMENTAL AND STRESS FACTORS

|-------Branching tier-------|-------------Environment--------------|----------------Stress-----------------|
                              |--------Average-------|---Cumulative--|         (0=Min, 1=Max Stress)         |
                         Time  Temp  Temp Solar Photop         Evapo |----Water---|--Nitrogen--|--Phosphorus-|
                         Span   Max   Min   Rad  [day]   Rain  Trans  Photo         Photo         Photo
                         days     C     C MJ/m2     hr     mm     mm  synth Growth  synth Growth  synth Growth
--------------------------------------------------------------------------------------------------------------
 Germinate  - 1stBranch    54  28.8  23.2  16.6  12.44  223.9  582.8  0.000  0.000  0.000  0.000 -99.00 -99.00
 1stBranch  - 2ndBranch    42  29.9  22.9  17.4  12.11  443.1  550.5  0.000  0.000  0.000  0.000 -99.00 -99.00
 2ndBranch  - 3rdBranch    44  31.3  22.7  17.6  11.74  784.6  568.8  0.000  0.001  0.000  0.000 -99.00 -99.00
 3rdBranch  - 4thBranch    57  34.2  20.2  19.2  11.49   10.3  754.8  0.021  0.186  0.000  0.000 -99.00 -99.00
 4thBranch  - 5thBranch    74  36.1  21.8  20.1  11.72   19.2  869.3  0.074  0.324  0.000  0.000 -99.00 -99.00
 5thBranch  - 6thBranch    71  34.8  25.2  20.0  12.29  329.1  766.0  0.034  0.236  0.000  0.000 -99.00 -99.00
 6thBranch  - 7thBranch    44  31.2  23.4  17.6  12.53  220.7  476.4  0.000  0.000  0.000  0.000 -99.00 -99.00
 7thBranch  - 8thBranch    12  29.4  22.8  16.1  12.46   31.4  116.3  0.000  0.000  0.000  0.000 -99.00 -99.00
 16thBranch - Harvest       0 -99.0 -99.0 -99.0 -99.00    0.0    0.0  0.000  0.000  0.000  0.000 -99.00 -99.00
  
 1stBranch  - Harvest     398  32.7  22.8  18.5  12.04 2062.3 1561.6  0.023  0.129  0.000  0.000 -99.00 -99.00
--------------------------------------------------------------------------------------------------------------


*RESOURCE PRODUCTIVITY

 Growing season length: 398 days 

 Precipitation during growth season       2062.3 mm[rain]
   Dry Matter Productivity                  0.58 kg[DM]/m3[rain]          =    5.8 kg[DM]/ha per mm[rain]
   Yield Productivity                       0.64 kg[Sroot yield]/m3[rain] =    6.4 kg[yield]/ha per mm[rain]

 Evapotranspiration during growth season  1561.6 mm[ET]
   Dry Matter Productivity                  0.77 kg[DM]/m3[ET]            =    7.7 kg[DM]/ha per mm[ET]
   Yield Productivity                       0.84 kg[Sroot yield]/m3[ET]   =    8.4 kg[yield]/ha per mm[ET]

 Transpiration during growth season        855.2 mm[EP]
   Dry Matter Productivity                  1.40 kg[DM]/m3[EP]            =   14.0 kg[DM]/ha per mm[EP]
   Yield Productivity                       1.54 kg[Sroot yield]/m3[EP]   =   15.4 kg[yield]/ha per mm[EP]

 Irrigation during growing season          487.4 mm[irrig]
   Dry Matter Productivity                  2.46 kg[DM]/m3[irrig]         =   24.6 kg[DM]/ha per mm[irrig]
   Yield Productivity                       2.71 kg[Sroot yield]/m3[irrig]=   27.1 kg[yield]/ha per mm[irrig]

--------------------------------------------------------------------------------------------------------------

          CASSAVA YIELD :    13193 kg/ha    [Dry weight] 

**************************************************************************************************************
  

*DSSAT Cropping System Model Ver. 4.8.0.019 -develop  DEC 23, 2021 14:23:36

*RUN   4        : IITA-TMS-IBA982101        CSYCA048 UYAG1701    4
 MODEL          : CSYCA048 - Cassava
 EXPERIMENT     : UYAG1701 CS UYT_GXE
 DATA PATH      :
 TREATMENT  4   : IITA-TMS-IBA982101        CSYCA048


 CROP           : Cassava          CULTIVAR : IITA-TMS-IBA9821 ECOTYPE :990016
 STARTING DATE  : JUN 18 2019
 PLANTING DATE  : JUN 18 2019      PLANTS/m2 :     1.0    ROW SPACING : 100.cm
 HARVEST DATE   : JUL 27 2020
 WEATHER        : UYAB   2019
 SOIL           : CBAN840001     TEXTURE : SL    - Sandy-Clay Loam EL NUS: C
 SOIL INITIAL C : DEPTH:120cm EXTR. H2O:158.5mm  NO3:  0.0kg/ha  NH4:  0.0kg/ha
 WATER BALANCE  : AUTOMATIC IRRIGATION - REFILL PROFILE
 IRRIGATION     : AUTOMATIC [SOIL DEPTH: 0.30 m 50.%]
 NITROGEN BAL.  : NOT SIMULATED ; NO N-STRESS
 N-FERTILIZER   :
 RESIDUE/MANURE :
 ENVIRONM. OPT. : DAYL=    0.00  SRAD=    0.00  TMAX=    0.00  TMIN=    0.00
                  RAIN=    0.00  CO2 =    0.00  DEW =    0.00  WIND=    0.00
 SIMULATION OPT : WATER   :Y  NITROGEN:N  N-FIX:N  PHOSPH :N  PESTS  :N
                  PHOTO   :R  ET      :R  INFIL:S  HYDROL :R  SOM    :G
                  CO2 411ppm  NSWIT   :1  EVAP :S  SOIL   :2  STEMP  :D
 MANAGEMENT OPT : PLANTING:R  IRRIG   :A  FERT :N  RESIDUE:N  HARVEST:R
                  WEATHER :M  TILLAGE :Y

*SUMMARY OF SOIL AND GENETIC INPUT PARAMETERS

   SOIL LOWER UPPER   SAT  EXTR  INIT   ROOT   BULK     pH    NO3    NH4    ORG
  DEPTH LIMIT LIMIT    SW    SW    SW   DIST   DENS                          C
   cm   cm3/cm3    cm3/cm3    cm3/cm3         g/cm3         ugN/g  ugN/g     %
-------------------------------------------------------------------------------
  0-  5 0.190 0.330 0.430 0.140 0.330   0.95   1.36   4.80   0.00   0.00   1.40
  5- 15 0.190 0.335 0.430 0.145 0.335   0.82   1.36   4.80   0.00   0.00   1.21
 15- 20 0.190 0.320 0.430 0.130 0.320   0.70   1.38   4.80   0.00   0.00   1.03
 20- 25 0.190 0.320 0.430 0.130 0.320   0.63   1.40   5.30   0.00   0.00   0.93
 25- 30 0.190 0.310 0.430 0.120 0.310   0.58   1.41   5.30   0.00   0.00   0.85
 30- 35 0.190 0.330 0.430 0.140 0.330   0.52   1.42   5.30   0.00   0.00   0.76
 35- 40 0.190 0.330 0.430 0.140 0.330   0.47   1.43   5.30   0.00   0.00   0.70
 40- 55 0.190 0.320 0.400 0.130 0.320   0.33   1.44   5.30   0.00   0.00   0.50
 55- 70 0.190 0.320 0.400 0.130 0.320   0.33   1.44   5.30   0.00   0.00   0.50
 70- 95 0.190 0.320 0.400 0.130 0.320   0.15   1.48   5.30   0.00   0.00   0.22
 95-120 0.190 0.320 0.400 0.130 0.320   0.15   1.48   5.30   0.00   0.00   0.22

TOT-120  22.8  38.6  49.2  15.8  38.6  <--cm   -  kg/ha-->    0.0    0.0      0
SOIL ALBEDO    : 0.13      EVAPORATION LIMIT :11.50         MIN. FACTOR  : 1.00
RUNOFF CURVE # :75.00      DRAINAGE RATE     : 0.65         FERT. FACTOR : 1.00

 Cassava          CULTIVAR: UC0023-IITA-TMS-IBA9821   ECOTYPE: 990016
  B01ND B12ND B23ND B34ND BR1FX BR2FX BR3FX BR4FX
  250.  200.  200.  200.  2.70  2.70  2.00  1.50
  LAXS  SLAS LLIFA LPEFR LNSLP NODWT NODLT
 350.0  220.1000.0   0.3  1.20  4.00  2.00


*SIMULATED CROP AND SOIL STATUS AT MAIN DEVELOPMENT STAGES
  
 RUN NO.      4   UYT_GXE                                                     

 ...... DATE ....... GROWTH STAGE    BIOMASS   LEAF       CROP N      STRESS
 YEARDOY DOM MON DAP ............... kg/ha  AREA NUMBER kg/ha    %   H2O     N
 2019231  19 Aug  62 1 1stBranch      1373 0.786   52.3    0 -99.0  0.00  0.00
 2019273  30 Sep 104 2 2ndBranch      3404 2.328   85.0    0 -99.0  0.00  0.00
 2019317  13 Nov 148 3 3rdBranch      4952 2.477  113.1    0 -99.0  0.00  0.00
 2020009   9 Jan 205 4 4thBranch      6338 1.683  137.1    0 -99.0  0.02  0.00
 2020083  23 Mar 279 5 5thBranch      7816 0.795  159.5    0 -99.0  0.07  0.00
 2020154   2 Jun 350 6 6thBranch      9506 0.820  179.9    0 -99.0  0.03  0.00
 2020198  16 Jul 394 7 7thBranch     10566 1.045  191.6    0 -99.0  0.00  0.00
 2020209  27 Jul 405 * Harvest       13193 1.101  194.3    0 -99.0  0.00  0.00
  

*MAIN GROWTH AND DEVELOPMENT VARIABLES

@     VARIABLE                           SIMULATED   MEASURED
      --------                           ---------   --------
      Germination  (dap)                      8        -99
      Emergence    (dap)                      8        -99
      1stBranch    (dap)                     62        -99
      2ndBranch    (dap)                    104        -99
      3rdBranch    (dap)                    148        -99
      4thBranch    (dap)                    205        -99
      5thBranch    (dap)                    279        -99
      6thBranch    (dap)                    350        -99
      7thBranch    (dap)                    394        -99
      Harvest      (dap)                  13193       8383
      AboveGround (kg dm/ha)              11972      12899
      Roots+seed residue (kg dm/ha)         598        -99
      Senesced (kg dm/ha)                  2764        -99
      Product (kg dm/ha)                  13193       8383
      AboveGroundVegetative (kg dm/ha)    11972      12899
      HarvestIndex (ratio)                 0.54       0.39
      Reserves (kg dm/ha)                  1314        -99
      Product unit wt (g dm)                -99        -99
      Product number (/m2)                  -99        -99
      Product number (/shoot)             -99.0      -99.0
      Maximum leaf area index               2.8    33220.0
      Final leaf number (one axis)        194.3      -99.0
      Assimilated N (kg/ha)               -99.0      -99.0
      AboveGround N (kg/ha)               -99.0      -99.0
      Root N (kg/ha)                      -99.0      -99.0
      Senesced N (kg/ha)                    0.0      -99.0
      Product N (kg/ha)                   -99.0      -99.0
      AboveGroundVegetative N (kg/ha)       0.0      -99.0
      N HarvestIndex (ratio)             -99.00     -99.00
      Product N (% dm)                    -99.0      -99.0
      AboveGroundVegetative N (% dm)      -99.0      -99.0

*ENVIRONMENTAL AND STRESS FACTORS

|-------Branching tier-------|-------------Environment--------------|----------------Stress-----------------|
                              |--------Average-------|---Cumulative--|         (0=Min, 1=Max Stress)         |
                         Time  Temp  Temp Solar Photop         Evapo |----Water---|--Nitrogen--|--Phosphorus-|
                         Span   Max   Min   Rad  [day]   Rain  Trans  Photo         Photo         Photo
                         days     C     C MJ/m2     hr     mm     mm  synth Growth  synth Growth  synth Growth
--------------------------------------------------------------------------------------------------------------
 Germinate  - 1stBranch    54  28.8  23.2  16.6  12.44  223.9  777.1  0.000  0.000  0.000  0.000 -99.00 -99.00
 1stBranch  - 2ndBranch    42  29.9  22.9  17.4  12.11  443.1  733.9  0.000  0.000  0.000  0.000 -99.00 -99.00
 2ndBranch  - 3rdBranch    44  31.3  22.7  17.6  11.74  784.6  758.3  0.000  0.001  0.000  0.000 -99.00 -99.00
 3rdBranch  - 4thBranch    57  34.2  20.2  19.2  11.49   10.3 1006.4  0.021  0.186  0.000  0.000 -99.00 -99.00
 4thBranch  - 5thBranch    74  36.1  21.8  20.1  11.72   19.2 1159.1  0.074  0.324  0.000  0.000 -99.00 -99.00
 5thBranch  - 6thBranch    71  34.8  25.2  20.0  12.29  329.1 1021.3  0.034  0.236  0.000  0.000 -99.00 -99.00
 6thBranch  - 7thBranch    44  31.2  23.4  17.6  12.53  220.7  635.1  0.000  0.000  0.000  0.000 -99.00 -99.00
 7thBranch  - 8thBranch    12  29.4  22.8  16.1  12.46   31.4  155.0  0.000  0.000  0.000  0.000 -99.00 -99.00
 16thBranch - Harvest       0 -99.0 -99.0 -99.0 -99.00    0.0    0.0  0.000  0.000  0.000  0.000 -99.00 -99.00
  
 1stBranch  - Harvest     398  32.7  22.8  18.5  12.04 2062.3 1561.6  0.023  0.129  0.000  0.000 -99.00 -99.00
--------------------------------------------------------------------------------------------------------------


*RESOURCE PRODUCTIVITY

 Growing season length: 398 days 

 Precipitation during growth season       2062.3 mm[rain]
   Dry Matter Productivity                  0.58 kg[DM]/m3[rain]          =    5.8 kg[DM]/ha per mm[rain]
   Yield Productivity                       0.64 kg[Sroot yield]/m3[rain] =    6.4 kg[yield]/ha per mm[rain]

 Evapotranspiration during growth season  1561.6 mm[ET]
   Dry Matter Productivity                  0.77 kg[DM]/m3[ET]            =    7.7 kg[DM]/ha per mm[ET]
   Yield Productivity                       0.84 kg[Sroot yield]/m3[ET]   =    8.4 kg[yield]/ha per mm[ET]

 Transpiration during growth season        855.2 mm[EP]
   Dry Matter Productivity                  1.40 kg[DM]/m3[EP]            =   14.0 kg[DM]/ha per mm[EP]
   Yield Productivity                       1.54 kg[Sroot yield]/m3[EP]   =   15.4 kg[yield]/ha per mm[EP]

 Irrigation during growing season          487.4 mm[irrig]
   Dry Matter Productivity                  2.46 kg[DM]/m3[irrig]         =   24.6 kg[DM]/ha per mm[irrig]
   Yield Productivity                       2.71 kg[Sroot yield]/m3[irrig]=   27.1 kg[yield]/ha per mm[irrig]

--------------------------------------------------------------------------------------------------------------

          CASSAVA YIELD :    13193 kg/ha    [Dry weight] 

**************************************************************************************************************
  

*DSSAT Cropping System Model Ver. 4.8.0.019 -develop  DEC 23, 2021 14:23:36

*RUN   5        : TMEB419                   CSYCA048 UYAG1701    5
 MODEL          : CSYCA048 - Cassava
 EXPERIMENT     : UYAG1701 CS UYT_GXE
 DATA PATH      :
 TREATMENT  5   : TMEB419                   CSYCA048


 CROP           : Cassava          CULTIVAR : TMEB419          ECOTYPE :990016
 STARTING DATE  : JUN 18 2019
 PLANTING DATE  : JUN 18 2019      PLANTS/m2 :     1.0    ROW SPACING : 100.cm
 HARVEST DATE   : JUL 27 2020
 WEATHER        : UYAB   2019
 SOIL           : CBAN840001     TEXTURE : SL    - Sandy-Clay Loam EL NUS: C
 SOIL INITIAL C : DEPTH:120cm EXTR. H2O:158.5mm  NO3:  0.0kg/ha  NH4:  0.0kg/ha
 WATER BALANCE  : AUTOMATIC IRRIGATION - REFILL PROFILE
 IRRIGATION     : AUTOMATIC [SOIL DEPTH: 0.30 m 50.%]
 NITROGEN BAL.  : NOT SIMULATED ; NO N-STRESS
 N-FERTILIZER   :
 RESIDUE/MANURE :
 ENVIRONM. OPT. : DAYL=    0.00  SRAD=    0.00  TMAX=    0.00  TMIN=    0.00
                  RAIN=    0.00  CO2 =    0.00  DEW =    0.00  WIND=    0.00
 SIMULATION OPT : WATER   :Y  NITROGEN:N  N-FIX:N  PHOSPH :N  PESTS  :N
                  PHOTO   :R  ET      :R  INFIL:S  HYDROL :R  SOM    :G
                  CO2 411ppm  NSWIT   :1  EVAP :S  SOIL   :2  STEMP  :D
 MANAGEMENT OPT : PLANTING:R  IRRIG   :A  FERT :N  RESIDUE:N  HARVEST:R
                  WEATHER :M  TILLAGE :Y

*SUMMARY OF SOIL AND GENETIC INPUT PARAMETERS

   SOIL LOWER UPPER   SAT  EXTR  INIT   ROOT   BULK     pH    NO3    NH4    ORG
  DEPTH LIMIT LIMIT    SW    SW    SW   DIST   DENS                          C
   cm   cm3/cm3    cm3/cm3    cm3/cm3         g/cm3         ugN/g  ugN/g     %
-------------------------------------------------------------------------------
  0-  5 0.190 0.330 0.430 0.140 0.330   0.95   1.36   4.80   0.00   0.00   1.40
  5- 15 0.190 0.335 0.430 0.145 0.335   0.82   1.36   4.80   0.00   0.00   1.21
 15- 20 0.190 0.320 0.430 0.130 0.320   0.70   1.38   4.80   0.00   0.00   1.03
 20- 25 0.190 0.320 0.430 0.130 0.320   0.63   1.40   5.30   0.00   0.00   0.93
 25- 30 0.190 0.310 0.430 0.120 0.310   0.58   1.41   5.30   0.00   0.00   0.85
 30- 35 0.190 0.330 0.430 0.140 0.330   0.52   1.42   5.30   0.00   0.00   0.76
 35- 40 0.190 0.330 0.430 0.140 0.330   0.47   1.43   5.30   0.00   0.00   0.70
 40- 55 0.190 0.320 0.400 0.130 0.320   0.33   1.44   5.30   0.00   0.00   0.50
 55- 70 0.190 0.320 0.400 0.130 0.320   0.33   1.44   5.30   0.00   0.00   0.50
 70- 95 0.190 0.320 0.400 0.130 0.320   0.15   1.48   5.30   0.00   0.00   0.22
 95-120 0.190 0.320 0.400 0.130 0.320   0.15   1.48   5.30   0.00   0.00   0.22

TOT-120  22.8  38.6  49.2  15.8  38.6  <--cm   -  kg/ha-->    0.0    0.0      0
SOIL ALBEDO    : 0.13      EVAPORATION LIMIT :11.50         MIN. FACTOR  : 1.00
RUNOFF CURVE # :75.00      DRAINAGE RATE     : 0.65         FERT. FACTOR : 1.00

 Cassava          CULTIVAR: UC0024-TMEB419            ECOTYPE: 990016
  B01ND B12ND B23ND B34ND BR1FX BR2FX BR3FX BR4FX
  250.  200.  200.  200.  2.70  2.70  2.00  1.50
  LAXS  SLAS LLIFA LPEFR LNSLP NODWT NODLT
 350.0  220.1000.0   0.3  1.20  4.00  2.00


*SIMULATED CROP AND SOIL STATUS AT MAIN DEVELOPMENT STAGES
  
 RUN NO.      5   UYT_GXE                                                     

 ...... DATE ....... GROWTH STAGE    BIOMASS   LEAF       CROP N      STRESS
 YEARDOY DOM MON DAP ............... kg/ha  AREA NUMBER kg/ha    %   H2O     N
 2019231  19 Aug  62 1 1stBranch      1373 0.786   52.3    0 -99.0  0.00  0.00
 2019273  30 Sep 104 2 2ndBranch      3404 2.328   85.0    0 -99.0  0.00  0.00
 2019317  13 Nov 148 3 3rdBranch      4952 2.477  113.1    0 -99.0  0.00  0.00
 2020009   9 Jan 205 4 4thBranch      6338 1.683  137.1    0 -99.0  0.02  0.00
 2020083  23 Mar 279 5 5thBranch      7816 0.795  159.5    0 -99.0  0.07  0.00
 2020154   2 Jun 350 6 6thBranch      9506 0.820  179.9    0 -99.0  0.03  0.00
 2020198  16 Jul 394 7 7thBranch     10566 1.045  191.6    0 -99.0  0.00  0.00
 2020209  27 Jul 405 * Harvest       13193 1.101  194.3    0 -99.0  0.00  0.00
  

*MAIN GROWTH AND DEVELOPMENT VARIABLES

@     VARIABLE                           SIMULATED   MEASURED
      --------                           ---------   --------
      Germination  (dap)                      8        -99
      Emergence    (dap)                      8        -99
      1stBranch    (dap)                     62        -99
      2ndBranch    (dap)                    104        -99
      3rdBranch    (dap)                    148        -99
      4thBranch    (dap)                    205        -99
      5thBranch    (dap)                    279        -99
      6thBranch    (dap)                    350        -99
      7thBranch    (dap)                    394        -99
      Harvest      (dap)                  13193      10763
      AboveGround (kg dm/ha)              11972      10451
      Roots+seed residue (kg dm/ha)         598        -99
      Senesced (kg dm/ha)                  2764        -99
      Product (kg dm/ha)                  13193      10763
      AboveGroundVegetative (kg dm/ha)    11972      10451
      HarvestIndex (ratio)                 0.54       0.51
      Reserves (kg dm/ha)                  1314        -99
      Product unit wt (g dm)                -99        -99
      Product number (/m2)                  -99        -99
      Product number (/shoot)             -99.0      -99.0
      Maximum leaf area index               2.8    31378.0
      Final leaf number (one axis)        194.3      -99.0
      Assimilated N (kg/ha)               -99.0      -99.0
      AboveGround N (kg/ha)               -99.0      -99.0
      Root N (kg/ha)                      -99.0      -99.0
      Senesced N (kg/ha)                    0.0      -99.0
      Product N (kg/ha)                   -99.0      -99.0
      AboveGroundVegetative N (kg/ha)       0.0      -99.0
      N HarvestIndex (ratio)             -99.00     -99.00
      Product N (% dm)                    -99.0      -99.0
      AboveGroundVegetative N (% dm)      -99.0      -99.0

*ENVIRONMENTAL AND STRESS FACTORS

|-------Branching tier-------|-------------Environment--------------|----------------Stress-----------------|
                              |--------Average-------|---Cumulative--|         (0=Min, 1=Max Stress)         |
                         Time  Temp  Temp Solar Photop         Evapo |----Water---|--Nitrogen--|--Phosphorus-|
                         Span   Max   Min   Rad  [day]   Rain  Trans  Photo         Photo         Photo
                         days     C     C MJ/m2     hr     mm     mm  synth Growth  synth Growth  synth Growth
--------------------------------------------------------------------------------------------------------------
 Germinate  - 1stBranch    54  28.8  23.2  16.6  12.44  223.9  971.3  0.000  0.000  0.000  0.000 -99.00 -99.00
 1stBranch  - 2ndBranch    42  29.9  22.9  17.4  12.11  443.1  917.4  0.000  0.000  0.000  0.000 -99.00 -99.00
 2ndBranch  - 3rdBranch    44  31.3  22.7  17.6  11.74  784.6  947.9  0.000  0.001  0.000  0.000 -99.00 -99.00
 3rdBranch  - 4thBranch    57  34.2  20.2  19.2  11.49   10.3 1258.0  0.021  0.186  0.000  0.000 -99.00 -99.00
 4thBranch  - 5thBranch    74  36.1  21.8  20.1  11.72   19.2 1448.8  0.074  0.324  0.000  0.000 -99.00 -99.00
 5thBranch  - 6thBranch    71  34.8  25.2  20.0  12.29  329.1 1276.6  0.034  0.236  0.000  0.000 -99.00 -99.00
 6thBranch  - 7thBranch    44  31.2  23.4  17.6  12.53  220.7  793.9  0.000  0.000  0.000  0.000 -99.00 -99.00
 7thBranch  - 8thBranch    12  29.4  22.8  16.1  12.46   31.4  193.8  0.000  0.000  0.000  0.000 -99.00 -99.00
 16thBranch - Harvest       0 -99.0 -99.0 -99.0 -99.00    0.0    0.0  0.000  0.000  0.000  0.000 -99.00 -99.00
  
 1stBranch  - Harvest     398  32.7  22.8  18.5  12.04 2062.3 1561.6  0.023  0.129  0.000  0.000 -99.00 -99.00
--------------------------------------------------------------------------------------------------------------


*RESOURCE PRODUCTIVITY

 Growing season length: 398 days 

 Precipitation during growth season       2062.3 mm[rain]
   Dry Matter Productivity                  0.58 kg[DM]/m3[rain]          =    5.8 kg[DM]/ha per mm[rain]
   Yield Productivity                       0.64 kg[Sroot yield]/m3[rain] =    6.4 kg[yield]/ha per mm[rain]

 Evapotranspiration during growth season  1561.6 mm[ET]
   Dry Matter Productivity                  0.77 kg[DM]/m3[ET]            =    7.7 kg[DM]/ha per mm[ET]
   Yield Productivity                       0.84 kg[Sroot yield]/m3[ET]   =    8.4 kg[yield]/ha per mm[ET]

 Transpiration during growth season        855.2 mm[EP]
   Dry Matter Productivity                  1.40 kg[DM]/m3[EP]            =   14.0 kg[DM]/ha per mm[EP]
   Yield Productivity                       1.54 kg[Sroot yield]/m3[EP]   =   15.4 kg[yield]/ha per mm[EP]

 Irrigation during growing season          487.4 mm[irrig]
   Dry Matter Productivity                  2.46 kg[DM]/m3[irrig]         =   24.6 kg[DM]/ha per mm[irrig]
   Yield Productivity                       2.71 kg[Sroot yield]/m3[irrig]=   27.1 kg[yield]/ha per mm[irrig]

--------------------------------------------------------------------------------------------------------------

          CASSAVA YIELD :    13193 kg/ha    [Dry weight] 

**************************************************************************************************************
  

*DSSAT Cropping System Model Ver. 4.8.0.019 -develop  DEC 23, 2021 14:23:36

*RUN   6        : TMS13F1021P0008           CSYCA048 UYAG1701    6
 MODEL          : CSYCA048 - Cassava
 EXPERIMENT     : UYAG1701 CS UYT_GXE
 DATA PATH      :
 TREATMENT  6   : TMS13F1021P0008           CSYCA048


 CROP           : Cassava          CULTIVAR : TMS13F1021P0008  ECOTYPE :990016
 STARTING DATE  : JUN 18 2019
 PLANTING DATE  : JUN 18 2019      PLANTS/m2 :     1.0    ROW SPACING : 100.cm
 HARVEST DATE   : JUL 27 2020
 WEATHER        : UYAB   2019
 SOIL           : CBAN840001     TEXTURE : SL    - Sandy-Clay Loam EL NUS: C
 SOIL INITIAL C : DEPTH:120cm EXTR. H2O:158.5mm  NO3:  0.0kg/ha  NH4:  0.0kg/ha
 WATER BALANCE  : AUTOMATIC IRRIGATION - REFILL PROFILE
 IRRIGATION     : AUTOMATIC [SOIL DEPTH: 0.30 m 50.%]
 NITROGEN BAL.  : NOT SIMULATED ; NO N-STRESS
 N-FERTILIZER   :
 RESIDUE/MANURE :
 ENVIRONM. OPT. : DAYL=    0.00  SRAD=    0.00  TMAX=    0.00  TMIN=    0.00
                  RAIN=    0.00  CO2 =    0.00  DEW =    0.00  WIND=    0.00
 SIMULATION OPT : WATER   :Y  NITROGEN:N  N-FIX:N  PHOSPH :N  PESTS  :N
                  PHOTO   :R  ET      :R  INFIL:S  HYDROL :R  SOM    :G
                  CO2 411ppm  NSWIT   :1  EVAP :S  SOIL   :2  STEMP  :D
 MANAGEMENT OPT : PLANTING:R  IRRIG   :A  FERT :N  RESIDUE:N  HARVEST:R
                  WEATHER :M  TILLAGE :Y

*SUMMARY OF SOIL AND GENETIC INPUT PARAMETERS

   SOIL LOWER UPPER   SAT  EXTR  INIT   ROOT   BULK     pH    NO3    NH4    ORG
  DEPTH LIMIT LIMIT    SW    SW    SW   DIST   DENS                          C
   cm   cm3/cm3    cm3/cm3    cm3/cm3         g/cm3         ugN/g  ugN/g     %
-------------------------------------------------------------------------------
  0-  5 0.190 0.330 0.430 0.140 0.330   0.95   1.36   4.80   0.00   0.00   1.40
  5- 15 0.190 0.335 0.430 0.145 0.335   0.82   1.36   4.80   0.00   0.00   1.21
 15- 20 0.190 0.320 0.430 0.130 0.320   0.70   1.38   4.80   0.00   0.00   1.03
 20- 25 0.190 0.320 0.430 0.130 0.320   0.63   1.40   5.30   0.00   0.00   0.93
 25- 30 0.190 0.310 0.430 0.120 0.310   0.58   1.41   5.30   0.00   0.00   0.85
 30- 35 0.190 0.330 0.430 0.140 0.330   0.52   1.42   5.30   0.00   0.00   0.76
 35- 40 0.190 0.330 0.430 0.140 0.330   0.47   1.43   5.30   0.00   0.00   0.70
 40- 55 0.190 0.320 0.400 0.130 0.320   0.33   1.44   5.30   0.00   0.00   0.50
 55- 70 0.190 0.320 0.400 0.130 0.320   0.33   1.44   5.30   0.00   0.00   0.50
 70- 95 0.190 0.320 0.400 0.130 0.320   0.15   1.48   5.30   0.00   0.00   0.22
 95-120 0.190 0.320 0.400 0.130 0.320   0.15   1.48   5.30   0.00   0.00   0.22

TOT-120  22.8  38.6  49.2  15.8  38.6  <--cm   -  kg/ha-->    0.0    0.0      0
SOIL ALBEDO    : 0.13      EVAPORATION LIMIT :11.50         MIN. FACTOR  : 1.00
RUNOFF CURVE # :75.00      DRAINAGE RATE     : 0.65         FERT. FACTOR : 1.00

 Cassava          CULTIVAR: UC0025-TMS13F1021P0008    ECOTYPE: 990016
  B01ND B12ND B23ND B34ND BR1FX BR2FX BR3FX BR4FX
  250.  200.  200.  200.  2.70  2.70  2.00  1.50
  LAXS  SLAS LLIFA LPEFR LNSLP NODWT NODLT
 350.0  220.1000.0   0.3  1.20  4.00  2.00


*SIMULATED CROP AND SOIL STATUS AT MAIN DEVELOPMENT STAGES
  
 RUN NO.      6   UYT_GXE                                                     

 ...... DATE ....... GROWTH STAGE    BIOMASS   LEAF       CROP N      STRESS
 YEARDOY DOM MON DAP ............... kg/ha  AREA NUMBER kg/ha    %   H2O     N
 2019231  19 Aug  62 1 1stBranch      1373 0.786   52.3    0 -99.0  0.00  0.00
 2019273  30 Sep 104 2 2ndBranch      3404 2.328   85.0    0 -99.0  0.00  0.00
 2019317  13 Nov 148 3 3rdBranch      4952 2.477  113.1    0 -99.0  0.00  0.00
 2020009   9 Jan 205 4 4thBranch      6338 1.683  137.1    0 -99.0  0.02  0.00
 2020083  23 Mar 279 5 5thBranch      7816 0.795  159.5    0 -99.0  0.07  0.00
 2020154   2 Jun 350 6 6thBranch      9506 0.820  179.9    0 -99.0  0.03  0.00
 2020198  16 Jul 394 7 7thBranch     10566 1.045  191.6    0 -99.0  0.00  0.00
 2020209  27 Jul 405 * Harvest       13193 1.101  194.3    0 -99.0  0.00  0.00
  

*MAIN GROWTH AND DEVELOPMENT VARIABLES

@     VARIABLE                           SIMULATED   MEASURED
      --------                           ---------   --------
      Germination  (dap)                      8        -99
      Emergence    (dap)                      8        -99
      1stBranch    (dap)                     62        -99
      2ndBranch    (dap)                    104        -99
      3rdBranch    (dap)                    148        -99
      4thBranch    (dap)                    205        -99
      5thBranch    (dap)                    279        -99
      6thBranch    (dap)                    350        -99
      7thBranch    (dap)                    394        -99
      Harvest      (dap)                  13193      11479
      AboveGround (kg dm/ha)              11972      10694
      Roots+seed residue (kg dm/ha)         598        -99
      Senesced (kg dm/ha)                  2764        -99
      Product (kg dm/ha)                  13193      11479
      AboveGroundVegetative (kg dm/ha)    11972      10694
      HarvestIndex (ratio)                 0.54       0.52
      Reserves (kg dm/ha)                  1314        -99
      Product unit wt (g dm)                -99        -99
      Product number (/m2)                  -99        -99
      Product number (/shoot)             -99.0      -99.0
      Maximum leaf area index               2.8    40246.0
      Final leaf number (one axis)        194.3      -99.0
      Assimilated N (kg/ha)               -99.0      -99.0
      AboveGround N (kg/ha)               -99.0      -99.0
      Root N (kg/ha)                      -99.0      -99.0
      Senesced N (kg/ha)                    0.0      -99.0
      Product N (kg/ha)                   -99.0      -99.0
      AboveGroundVegetative N (kg/ha)       0.0      -99.0
      N HarvestIndex (ratio)             -99.00     -99.00
      Product N (% dm)                    -99.0      -99.0
      AboveGroundVegetative N (% dm)      -99.0      -99.0

*ENVIRONMENTAL AND STRESS FACTORS

|-------Branching tier-------|-------------Environment--------------|----------------Stress-----------------|
                              |--------Average-------|---Cumulative--|         (0=Min, 1=Max Stress)         |
                         Time  Temp  Temp Solar Photop         Evapo |----Water---|--Nitrogen--|--Phosphorus-|
                         Span   Max   Min   Rad  [day]   Rain  Trans  Photo         Photo         Photo
                         days     C     C MJ/m2     hr     mm     mm  synth Growth  synth Growth  synth Growth
--------------------------------------------------------------------------------------------------------------
 Germinate  - 1stBranch    54  28.8  23.2  16.6  12.44  223.9 1165.6  0.000  0.000  0.000  0.000 -99.00 -99.00
 1stBranch  - 2ndBranch    42  29.9  22.9  17.4  12.11  443.1 1100.9  0.000  0.000  0.000  0.000 -99.00 -99.00
 2ndBranch  - 3rdBranch    44  31.3  22.7  17.6  11.74  784.6 1137.5  0.000  0.001  0.000  0.000 -99.00 -99.00
 3rdBranch  - 4thBranch    57  34.2  20.2  19.2  11.49   10.3 1509.6  0.021  0.186  0.000  0.000 -99.00 -99.00
 4thBranch  - 5thBranch    74  36.1  21.8  20.1  11.72   19.2 1738.6  0.074  0.324  0.000  0.000 -99.00 -99.00
 5thBranch  - 6thBranch    71  34.8  25.2  20.0  12.29  329.1 1531.9  0.034  0.236  0.000  0.000 -99.00 -99.00
 6thBranch  - 7thBranch    44  31.2  23.4  17.6  12.53  220.7  952.7  0.000  0.000  0.000  0.000 -99.00 -99.00
 7thBranch  - 8thBranch    12  29.4  22.8  16.1  12.46   31.4  232.5  0.000  0.000  0.000  0.000 -99.00 -99.00
 16thBranch - Harvest       0 -99.0 -99.0 -99.0 -99.00    0.0    0.0  0.000  0.000  0.000  0.000 -99.00 -99.00
  
 1stBranch  - Harvest     398  32.7  22.8  18.5  12.04 2062.3 1561.6  0.023  0.129  0.000  0.000 -99.00 -99.00
--------------------------------------------------------------------------------------------------------------


*RESOURCE PRODUCTIVITY

 Growing season length: 398 days 

 Precipitation during growth season       2062.3 mm[rain]
   Dry Matter Productivity                  0.58 kg[DM]/m3[rain]          =    5.8 kg[DM]/ha per mm[rain]
   Yield Productivity                       0.64 kg[Sroot yield]/m3[rain] =    6.4 kg[yield]/ha per mm[rain]

 Evapotranspiration during growth season  1561.6 mm[ET]
   Dry Matter Productivity                  0.77 kg[DM]/m3[ET]            =    7.7 kg[DM]/ha per mm[ET]
   Yield Productivity                       0.84 kg[Sroot yield]/m3[ET]   =    8.4 kg[yield]/ha per mm[ET]

 Transpiration during growth season        855.2 mm[EP]
   Dry Matter Productivity                  1.40 kg[DM]/m3[EP]            =   14.0 kg[DM]/ha per mm[EP]
   Yield Productivity                       1.54 kg[Sroot yield]/m3[EP]   =   15.4 kg[yield]/ha per mm[EP]

 Irrigation during growing season          487.4 mm[irrig]
   Dry Matter Productivity                  2.46 kg[DM]/m3[irrig]         =   24.6 kg[DM]/ha per mm[irrig]
   Yield Productivity                       2.71 kg[Sroot yield]/m3[irrig]=   27.1 kg[yield]/ha per mm[irrig]

--------------------------------------------------------------------------------------------------------------

          CASSAVA YIELD :    13193 kg/ha    [Dry weight] 

**************************************************************************************************************
  

*DSSAT Cropping System Model Ver. 4.8.0.019 -develop  DEC 23, 2021 14:23:37

*RUN   7        : TMS13F1049P0001           CSYCA048 UYAG1701    7
 MODEL          : CSYCA048 - Cassava
 EXPERIMENT     : UYAG1701 CS UYT_GXE
 DATA PATH      :
 TREATMENT  7   : TMS13F1049P0001           CSYCA048


 CROP           : Cassava          CULTIVAR : TMS13F1049P0001  ECOTYPE :990016
 STARTING DATE  : JUN 18 2019
 PLANTING DATE  : JUN 18 2019      PLANTS/m2 :     1.0    ROW SPACING : 100.cm
 HARVEST DATE   : JUL 27 2020
 WEATHER        : UYAB   2019
 SOIL           : CBAN840001     TEXTURE : SL    - Sandy-Clay Loam EL NUS: C
 SOIL INITIAL C : DEPTH:120cm EXTR. H2O:158.5mm  NO3:  0.0kg/ha  NH4:  0.0kg/ha
 WATER BALANCE  : AUTOMATIC IRRIGATION - REFILL PROFILE
 IRRIGATION     : AUTOMATIC [SOIL DEPTH: 0.30 m 50.%]
 NITROGEN BAL.  : NOT SIMULATED ; NO N-STRESS
 N-FERTILIZER   :
 RESIDUE/MANURE :
 ENVIRONM. OPT. : DAYL=    0.00  SRAD=    0.00  TMAX=    0.00  TMIN=    0.00
                  RAIN=    0.00  CO2 =    0.00  DEW =    0.00  WIND=    0.00
 SIMULATION OPT : WATER   :Y  NITROGEN:N  N-FIX:N  PHOSPH :N  PESTS  :N
                  PHOTO   :R  ET      :R  INFIL:S  HYDROL :R  SOM    :G
                  CO2 411ppm  NSWIT   :1  EVAP :S  SOIL   :2  STEMP  :D
 MANAGEMENT OPT : PLANTING:R  IRRIG   :A  FERT :N  RESIDUE:N  HARVEST:R
                  WEATHER :M  TILLAGE :Y

*SUMMARY OF SOIL AND GENETIC INPUT PARAMETERS

   SOIL LOWER UPPER   SAT  EXTR  INIT   ROOT   BULK     pH    NO3    NH4    ORG
  DEPTH LIMIT LIMIT    SW    SW    SW   DIST   DENS                          C
   cm   cm3/cm3    cm3/cm3    cm3/cm3         g/cm3         ugN/g  ugN/g     %
-------------------------------------------------------------------------------
  0-  5 0.190 0.330 0.430 0.140 0.330   0.95   1.36   4.80   0.00   0.00   1.40
  5- 15 0.190 0.335 0.430 0.145 0.335   0.82   1.36   4.80   0.00   0.00   1.21
 15- 20 0.190 0.320 0.430 0.130 0.320   0.70   1.38   4.80   0.00   0.00   1.03
 20- 25 0.190 0.320 0.430 0.130 0.320   0.63   1.40   5.30   0.00   0.00   0.93
 25- 30 0.190 0.310 0.430 0.120 0.310   0.58   1.41   5.30   0.00   0.00   0.85
 30- 35 0.190 0.330 0.430 0.140 0.330   0.52   1.42   5.30   0.00   0.00   0.76
 35- 40 0.190 0.330 0.430 0.140 0.330   0.47   1.43   5.30   0.00   0.00   0.70
 40- 55 0.190 0.320 0.400 0.130 0.320   0.33   1.44   5.30   0.00   0.00   0.50
 55- 70 0.190 0.320 0.400 0.130 0.320   0.33   1.44   5.30   0.00   0.00   0.50
 70- 95 0.190 0.320 0.400 0.130 0.320   0.15   1.48   5.30   0.00   0.00   0.22
 95-120 0.190 0.320 0.400 0.130 0.320   0.15   1.48   5.30   0.00   0.00   0.22

TOT-120  22.8  38.6  49.2  15.8  38.6  <--cm   -  kg/ha-->    0.0    0.0      0
SOIL ALBEDO    : 0.13      EVAPORATION LIMIT :11.50         MIN. FACTOR  : 1.00
RUNOFF CURVE # :75.00      DRAINAGE RATE     : 0.65         FERT. FACTOR : 1.00

 Cassava          CULTIVAR: UC0056-TMS13F1049P0001    ECOTYPE: 990016
  B01ND B12ND B23ND B34ND BR1FX BR2FX BR3FX BR4FX
  250.  200.  200.  200.  2.70  2.70  2.00  1.50
  LAXS  SLAS LLIFA LPEFR LNSLP NODWT NODLT
 350.0  220.1000.0   0.3  1.20  4.00  2.00


*SIMULATED CROP AND SOIL STATUS AT MAIN DEVELOPMENT STAGES
  
 RUN NO.      7   UYT_GXE                                                     

 ...... DATE ....... GROWTH STAGE    BIOMASS   LEAF       CROP N      STRESS
 YEARDOY DOM MON DAP ............... kg/ha  AREA NUMBER kg/ha    %   H2O     N
 2019231  19 Aug  62 1 1stBranch      1373 0.786   52.3    0 -99.0  0.00  0.00
 2019273  30 Sep 104 2 2ndBranch      3404 2.328   85.0    0 -99.0  0.00  0.00
 2019317  13 Nov 148 3 3rdBranch      4952 2.477  113.1    0 -99.0  0.00  0.00
 2020009   9 Jan 205 4 4thBranch      6338 1.683  137.1    0 -99.0  0.02  0.00
 2020083  23 Mar 279 5 5thBranch      7816 0.795  159.5    0 -99.0  0.07  0.00
 2020154   2 Jun 350 6 6thBranch      9506 0.820  179.9    0 -99.0  0.03  0.00
 2020198  16 Jul 394 7 7thBranch     10566 1.045  191.6    0 -99.0  0.00  0.00
 2020209  27 Jul 405 * Harvest       13193 1.101  194.3    0 -99.0  0.00  0.00
  

*MAIN GROWTH AND DEVELOPMENT VARIABLES

@     VARIABLE                           SIMULATED   MEASURED
      --------                           ---------   --------
      Germination  (dap)                      8        -99
      Emergence    (dap)                      8        -99
      1stBranch    (dap)                     62        -99
      2ndBranch    (dap)                    104        -99
      3rdBranch    (dap)                    148        -99
      4thBranch    (dap)                    205        -99
      5thBranch    (dap)                    279        -99
      6thBranch    (dap)                    350        -99
      7thBranch    (dap)                    394        -99
      Harvest      (dap)                  13193      12337
      AboveGround (kg dm/ha)              11972      11910
      Roots+seed residue (kg dm/ha)         598        -99
      Senesced (kg dm/ha)                  2764        -99
      Product (kg dm/ha)                  13193      12337
      AboveGroundVegetative (kg dm/ha)    11972      11910
      HarvestIndex (ratio)                 0.54       0.51
      Reserves (kg dm/ha)                  1314        -99
      Product unit wt (g dm)                -99        -99
      Product number (/m2)                  -99        -99
      Product number (/shoot)             -99.0      -99.0
      Maximum leaf area index               2.8    12627.0
      Final leaf number (one axis)        194.3      -99.0
      Assimilated N (kg/ha)               -99.0      -99.0
      AboveGround N (kg/ha)               -99.0      -99.0
      Root N (kg/ha)                      -99.0      -99.0
      Senesced N (kg/ha)                    0.0      -99.0
      Product N (kg/ha)                   -99.0      -99.0
      AboveGroundVegetative N (kg/ha)       0.0      -99.0
      N HarvestIndex (ratio)             -99.00     -99.00
      Product N (% dm)                    -99.0      -99.0
      AboveGroundVegetative N (% dm)      -99.0      -99.0

*ENVIRONMENTAL AND STRESS FACTORS

|-------Branching tier-------|-------------Environment--------------|----------------Stress-----------------|
                              |--------Average-------|---Cumulative--|         (0=Min, 1=Max Stress)         |
                         Time  Temp  Temp Solar Photop         Evapo |----Water---|--Nitrogen--|--Phosphorus-|
                         Span   Max   Min   Rad  [day]   Rain  Trans  Photo         Photo         Photo
                         days     C     C MJ/m2     hr     mm     mm  synth Growth  synth Growth  synth Growth
--------------------------------------------------------------------------------------------------------------
 Germinate  - 1stBranch    54  28.8  23.2  16.6  12.44  223.9 1359.9  0.000  0.000  0.000  0.000 -99.00 -99.00
 1stBranch  - 2ndBranch    42  29.9  22.9  17.4  12.11  443.1 1284.4  0.000  0.000  0.000  0.000 -99.00 -99.00
 2ndBranch  - 3rdBranch    44  31.3  22.7  17.6  11.74  784.6 1327.1  0.000  0.001  0.000  0.000 -99.00 -99.00
 3rdBranch  - 4thBranch    57  34.2  20.2  19.2  11.49   10.3 1761.3  0.021  0.186  0.000  0.000 -99.00 -99.00
 4thBranch  - 5thBranch    74  36.1  21.8  20.1  11.72   19.2 2028.4  0.074  0.324  0.000  0.000 -99.00 -99.00
 5thBranch  - 6thBranch    71  34.8  25.2  20.0  12.29  329.1 1787.2  0.034  0.236  0.000  0.000 -99.00 -99.00
 6thBranch  - 7thBranch    44  31.2  23.4  17.6  12.53  220.7 1111.5  0.000  0.000  0.000  0.000 -99.00 -99.00
 7thBranch  - 8thBranch    12  29.4  22.8  16.1  12.46   31.4  271.3  0.000  0.000  0.000  0.000 -99.00 -99.00
 16thBranch - Harvest       0 -99.0 -99.0 -99.0 -99.00    0.0    0.0  0.000  0.000  0.000  0.000 -99.00 -99.00
  
 1stBranch  - Harvest     398  32.7  22.8  18.5  12.04 2062.3 1561.6  0.023  0.129  0.000  0.000 -99.00 -99.00
--------------------------------------------------------------------------------------------------------------


*RESOURCE PRODUCTIVITY

 Growing season length: 398 days 

 Precipitation during growth season       2062.3 mm[rain]
   Dry Matter Productivity                  0.58 kg[DM]/m3[rain]          =    5.8 kg[DM]/ha per mm[rain]
   Yield Productivity                       0.64 kg[Sroot yield]/m3[rain] =    6.4 kg[yield]/ha per mm[rain]

 Evapotranspiration during growth season  1561.6 mm[ET]
   Dry Matter Productivity                  0.77 kg[DM]/m3[ET]            =    7.7 kg[DM]/ha per mm[ET]
   Yield Productivity                       0.84 kg[Sroot yield]/m3[ET]   =    8.4 kg[yield]/ha per mm[ET]

 Transpiration during growth season        855.2 mm[EP]
   Dry Matter Productivity                  1.40 kg[DM]/m3[EP]            =   14.0 kg[DM]/ha per mm[EP]
   Yield Productivity                       1.54 kg[Sroot yield]/m3[EP]   =   15.4 kg[yield]/ha per mm[EP]

 Irrigation during growing season          487.4 mm[irrig]
   Dry Matter Productivity                  2.46 kg[DM]/m3[irrig]         =   24.6 kg[DM]/ha per mm[irrig]
   Yield Productivity                       2.71 kg[Sroot yield]/m3[irrig]=   27.1 kg[yield]/ha per mm[irrig]

--------------------------------------------------------------------------------------------------------------

          CASSAVA YIELD :    13193 kg/ha    [Dry weight] 

**************************************************************************************************************
  

*DSSAT Cropping System Model Ver. 4.8.0.019 -develop  DEC 23, 2021 14:23:37

*RUN   8        : TMS13F1114P0001           CSYCA048 UYAG1701    8
 MODEL          : CSYCA048 - Cassava
 EXPERIMENT     : UYAG1701 CS UYT_GXE
 DATA PATH      :
 TREATMENT  8   : TMS13F1114P0001           CSYCA048


 CROP           : Cassava          CULTIVAR : TMS13F1114P0001  ECOTYPE :990016
 STARTING DATE  : JUN 18 2019
 PLANTING DATE  : JUN 18 2019      PLANTS/m2 :     1.0    ROW SPACING : 100.cm
 HARVEST DATE   : JUL 27 2020
 WEATHER        : UYAB   2019
 SOIL           : CBAN840001     TEXTURE : SL    - Sandy-Clay Loam EL NUS: C
 SOIL INITIAL C : DEPTH:120cm EXTR. H2O:158.5mm  NO3:  0.0kg/ha  NH4:  0.0kg/ha
 WATER BALANCE  : AUTOMATIC IRRIGATION - REFILL PROFILE
 IRRIGATION     : AUTOMATIC [SOIL DEPTH: 0.30 m 50.%]
 NITROGEN BAL.  : NOT SIMULATED ; NO N-STRESS
 N-FERTILIZER   :
 RESIDUE/MANURE :
 ENVIRONM. OPT. : DAYL=    0.00  SRAD=    0.00  TMAX=    0.00  TMIN=    0.00
                  RAIN=    0.00  CO2 =    0.00  DEW =    0.00  WIND=    0.00
 SIMULATION OPT : WATER   :Y  NITROGEN:N  N-FIX:N  PHOSPH :N  PESTS  :N
                  PHOTO   :R  ET      :R  INFIL:S  HYDROL :R  SOM    :G
                  CO2 411ppm  NSWIT   :1  EVAP :S  SOIL   :2  STEMP  :D
 MANAGEMENT OPT : PLANTING:R  IRRIG   :A  FERT :N  RESIDUE:N  HARVEST:R
                  WEATHER :M  TILLAGE :Y

*SUMMARY OF SOIL AND GENETIC INPUT PARAMETERS

   SOIL LOWER UPPER   SAT  EXTR  INIT   ROOT   BULK     pH    NO3    NH4    ORG
  DEPTH LIMIT LIMIT    SW    SW    SW   DIST   DENS                          C
   cm   cm3/cm3    cm3/cm3    cm3/cm3         g/cm3         ugN/g  ugN/g     %
-------------------------------------------------------------------------------
  0-  5 0.190 0.330 0.430 0.140 0.330   0.95   1.36   4.80   0.00   0.00   1.40
  5- 15 0.190 0.335 0.430 0.145 0.335   0.82   1.36   4.80   0.00   0.00   1.21
 15- 20 0.190 0.320 0.430 0.130 0.320   0.70   1.38   4.80   0.00   0.00   1.03
 20- 25 0.190 0.320 0.430 0.130 0.320   0.63   1.40   5.30   0.00   0.00   0.93
 25- 30 0.190 0.310 0.430 0.120 0.310   0.58   1.41   5.30   0.00   0.00   0.85
 30- 35 0.190 0.330 0.430 0.140 0.330   0.52   1.42   5.30   0.00   0.00   0.76
 35- 40 0.190 0.330 0.430 0.140 0.330   0.47   1.43   5.30   0.00   0.00   0.70
 40- 55 0.190 0.320 0.400 0.130 0.320   0.33   1.44   5.30   0.00   0.00   0.50
 55- 70 0.190 0.320 0.400 0.130 0.320   0.33   1.44   5.30   0.00   0.00   0.50
 70- 95 0.190 0.320 0.400 0.130 0.320   0.15   1.48   5.30   0.00   0.00   0.22
 95-120 0.190 0.320 0.400 0.130 0.320   0.15   1.48   5.30   0.00   0.00   0.22

TOT-120  22.8  38.6  49.2  15.8  38.6  <--cm   -  kg/ha-->    0.0    0.0      0
SOIL ALBEDO    : 0.13      EVAPORATION LIMIT :11.50         MIN. FACTOR  : 1.00
RUNOFF CURVE # :75.00      DRAINAGE RATE     : 0.65         FERT. FACTOR : 1.00

 Cassava          CULTIVAR: UC0026-TMS13F1114P0001    ECOTYPE: 990016
  B01ND B12ND B23ND B34ND BR1FX BR2FX BR3FX BR4FX
  250.  200.  200.  200.  2.70  2.70  2.00  1.50
  LAXS  SLAS LLIFA LPEFR LNSLP NODWT NODLT
 350.0  220.1000.0   0.3  1.20  4.00  2.00


*SIMULATED CROP AND SOIL STATUS AT MAIN DEVELOPMENT STAGES
  
 RUN NO.      8   UYT_GXE                                                     

 ...... DATE ....... GROWTH STAGE    BIOMASS   LEAF       CROP N      STRESS
 YEARDOY DOM MON DAP ............... kg/ha  AREA NUMBER kg/ha    %   H2O     N
 2019231  19 Aug  62 1 1stBranch      1373 0.786   52.3    0 -99.0  0.00  0.00
 2019273  30 Sep 104 2 2ndBranch      3404 2.328   85.0    0 -99.0  0.00  0.00
 2019317  13 Nov 148 3 3rdBranch      4952 2.477  113.1    0 -99.0  0.00  0.00
 2020009   9 Jan 205 4 4thBranch      6338 1.683  137.1    0 -99.0  0.02  0.00
 2020083  23 Mar 279 5 5thBranch      7816 0.795  159.5    0 -99.0  0.07  0.00
 2020154   2 Jun 350 6 6thBranch      9506 0.820  179.9    0 -99.0  0.03  0.00
 2020198  16 Jul 394 7 7thBranch     10566 1.045  191.6    0 -99.0  0.00  0.00
 2020209  27 Jul 405 * Harvest       13193 1.101  194.3    0 -99.0  0.00  0.00
  

*MAIN GROWTH AND DEVELOPMENT VARIABLES

@     VARIABLE                           SIMULATED   MEASURED
      --------                           ---------   --------
      Germination  (dap)                      8        -99
      Emergence    (dap)                      8        -99
      1stBranch    (dap)                     62        -99
      2ndBranch    (dap)                    104        -99
      3rdBranch    (dap)                    148        -99
      4thBranch    (dap)                    205        -99
      5thBranch    (dap)                    279        -99
      6thBranch    (dap)                    350        -99
      7thBranch    (dap)                    394        -99
      Harvest      (dap)                  13193      11248
      AboveGround (kg dm/ha)              11972      11146
      Roots+seed residue (kg dm/ha)         598        -99
      Senesced (kg dm/ha)                  2764        -99
      Product (kg dm/ha)                  13193      11248
      AboveGroundVegetative (kg dm/ha)    11972      11146
      HarvestIndex (ratio)                 0.54       0.50
      Reserves (kg dm/ha)                  1314        -99
      Product unit wt (g dm)                -99        -99
      Product number (/m2)                  -99        -99
      Product number (/shoot)             -99.0      -99.0
      Maximum leaf area index               2.8    43583.0
      Final leaf number (one axis)        194.3      -99.0
      Assimilated N (kg/ha)               -99.0      -99.0
      AboveGround N (kg/ha)               -99.0      -99.0
      Root N (kg/ha)                      -99.0      -99.0
      Senesced N (kg/ha)                    0.0      -99.0
      Product N (kg/ha)                   -99.0      -99.0
      AboveGroundVegetative N (kg/ha)       0.0      -99.0
      N HarvestIndex (ratio)             -99.00     -99.00
      Product N (% dm)                    -99.0      -99.0
      AboveGroundVegetative N (% dm)      -99.0      -99.0

*ENVIRONMENTAL AND STRESS FACTORS

|-------Branching tier-------|-------------Environment--------------|----------------Stress-----------------|
                              |--------Average-------|---Cumulative--|         (0=Min, 1=Max Stress)         |
                         Time  Temp  Temp Solar Photop         Evapo |----Water---|--Nitrogen--|--Phosphorus-|
                         Span   Max   Min   Rad  [day]   Rain  Trans  Photo         Photo         Photo
                         days     C     C MJ/m2     hr     mm     mm  synth Growth  synth Growth  synth Growth
--------------------------------------------------------------------------------------------------------------
 Germinate  - 1stBranch    54  28.8  23.2  16.6  12.44  223.9 1554.1  0.000  0.000  0.000  0.000 -99.00 -99.00
 1stBranch  - 2ndBranch    42  29.9  22.9  17.4  12.11  443.1 1467.9  0.000  0.000  0.000  0.000 -99.00 -99.00
 2ndBranch  - 3rdBranch    44  31.3  22.7  17.6  11.74  784.6 1516.7  0.000  0.001  0.000  0.000 -99.00 -99.00
 3rdBranch  - 4thBranch    57  34.2  20.2  19.2  11.49   10.3 2012.9  0.021  0.186  0.000  0.000 -99.00 -99.00
 4thBranch  - 5thBranch    74  36.1  21.8  20.1  11.72   19.2 2318.2  0.074  0.324  0.000  0.000 -99.00 -99.00
 5thBranch  - 6thBranch    71  34.8  25.2  20.0  12.29  329.1 2042.6  0.034  0.236  0.000  0.000 -99.00 -99.00
 6thBranch  - 7thBranch    44  31.2  23.4  17.6  12.53  220.7 1270.3  0.000  0.000  0.000  0.000 -99.00 -99.00
 7thBranch  - 8thBranch    12  29.4  22.8  16.1  12.46   31.4  310.0  0.000  0.000  0.000  0.000 -99.00 -99.00
 16thBranch - Harvest       0 -99.0 -99.0 -99.0 -99.00    0.0    0.0  0.000  0.000  0.000  0.000 -99.00 -99.00
  
 1stBranch  - Harvest     398  32.7  22.8  18.5  12.04 2062.3 1561.6  0.023  0.129  0.000  0.000 -99.00 -99.00
--------------------------------------------------------------------------------------------------------------


*RESOURCE PRODUCTIVITY

 Growing season length: 398 days 

 Precipitation during growth season       2062.3 mm[rain]
   Dry Matter Productivity                  0.58 kg[DM]/m3[rain]          =    5.8 kg[DM]/ha per mm[rain]
   Yield Productivity                       0.64 kg[Sroot yield]/m3[rain] =    6.4 kg[yield]/ha per mm[rain]

 Evapotranspiration during growth season  1561.6 mm[ET]
   Dry Matter Productivity                  0.77 kg[DM]/m3[ET]            =    7.7 kg[DM]/ha per mm[ET]
   Yield Productivity                       0.84 kg[Sroot yield]/m3[ET]   =    8.4 kg[yield]/ha per mm[ET]

 Transpiration during growth season        855.2 mm[EP]
   Dry Matter Productivity                  1.40 kg[DM]/m3[EP]            =   14.0 kg[DM]/ha per mm[EP]
   Yield Productivity                       1.54 kg[Sroot yield]/m3[EP]   =   15.4 kg[yield]/ha per mm[EP]

 Irrigation during growing season          487.4 mm[irrig]
   Dry Matter Productivity                  2.46 kg[DM]/m3[irrig]         =   24.6 kg[DM]/ha per mm[irrig]
   Yield Productivity                       2.71 kg[Sroot yield]/m3[irrig]=   27.1 kg[yield]/ha per mm[irrig]

--------------------------------------------------------------------------------------------------------------

          CASSAVA YIELD :    13193 kg/ha    [Dry weight] 

**************************************************************************************************************
  

*DSSAT Cropping System Model Ver. 4.8.0.019 -develop  DEC 23, 2021 14:23:37

*RUN   9        : TMS13F1126P0003           CSYCA048 UYAG1701    9
 MODEL          : CSYCA048 - Cassava
 EXPERIMENT     : UYAG1701 CS UYT_GXE
 DATA PATH      :
 TREATMENT  9   : TMS13F1126P0003           CSYCA048


 CROP           : Cassava          CULTIVAR : TMS13F1126P0003  ECOTYPE :990016
 STARTING DATE  : JUN 18 2019
 PLANTING DATE  : JUN 18 2019      PLANTS/m2 :     1.0    ROW SPACING : 100.cm
 HARVEST DATE   : JUL 27 2020
 WEATHER        : UYAB   2019
 SOIL           : CBAN840001     TEXTURE : SL    - Sandy-Clay Loam EL NUS: C
 SOIL INITIAL C : DEPTH:120cm EXTR. H2O:158.5mm  NO3:  0.0kg/ha  NH4:  0.0kg/ha
 WATER BALANCE  : AUTOMATIC IRRIGATION - REFILL PROFILE
 IRRIGATION     : AUTOMATIC [SOIL DEPTH: 0.30 m 50.%]
 NITROGEN BAL.  : NOT SIMULATED ; NO N-STRESS
 N-FERTILIZER   :
 RESIDUE/MANURE :
 ENVIRONM. OPT. : DAYL=    0.00  SRAD=    0.00  TMAX=    0.00  TMIN=    0.00
                  RAIN=    0.00  CO2 =    0.00  DEW =    0.00  WIND=    0.00
 SIMULATION OPT : WATER   :Y  NITROGEN:N  N-FIX:N  PHOSPH :N  PESTS  :N
                  PHOTO   :R  ET      :R  INFIL:S  HYDROL :R  SOM    :G
                  CO2 411ppm  NSWIT   :1  EVAP :S  SOIL   :2  STEMP  :D
 MANAGEMENT OPT : PLANTING:R  IRRIG   :A  FERT :N  RESIDUE:N  HARVEST:R
                  WEATHER :M  TILLAGE :Y

*SUMMARY OF SOIL AND GENETIC INPUT PARAMETERS

   SOIL LOWER UPPER   SAT  EXTR  INIT   ROOT   BULK     pH    NO3    NH4    ORG
  DEPTH LIMIT LIMIT    SW    SW    SW   DIST   DENS                          C
   cm   cm3/cm3    cm3/cm3    cm3/cm3         g/cm3         ugN/g  ugN/g     %
-------------------------------------------------------------------------------
  0-  5 0.190 0.330 0.430 0.140 0.330   0.95   1.36   4.80   0.00   0.00   1.40
  5- 15 0.190 0.335 0.430 0.145 0.335   0.82   1.36   4.80   0.00   0.00   1.21
 15- 20 0.190 0.320 0.430 0.130 0.320   0.70   1.38   4.80   0.00   0.00   1.03
 20- 25 0.190 0.320 0.430 0.130 0.320   0.63   1.40   5.30   0.00   0.00   0.93
 25- 30 0.190 0.310 0.430 0.120 0.310   0.58   1.41   5.30   0.00   0.00   0.85
 30- 35 0.190 0.330 0.430 0.140 0.330   0.52   1.42   5.30   0.00   0.00   0.76
 35- 40 0.190 0.330 0.430 0.140 0.330   0.47   1.43   5.30   0.00   0.00   0.70
 40- 55 0.190 0.320 0.400 0.130 0.320   0.33   1.44   5.30   0.00   0.00   0.50
 55- 70 0.190 0.320 0.400 0.130 0.320   0.33   1.44   5.30   0.00   0.00   0.50
 70- 95 0.190 0.320 0.400 0.130 0.320   0.15   1.48   5.30   0.00   0.00   0.22
 95-120 0.190 0.320 0.400 0.130 0.320   0.15   1.48   5.30   0.00   0.00   0.22

TOT-120  22.8  38.6  49.2  15.8  38.6  <--cm   -  kg/ha-->    0.0    0.0      0
SOIL ALBEDO    : 0.13      EVAPORATION LIMIT :11.50         MIN. FACTOR  : 1.00
RUNOFF CURVE # :75.00      DRAINAGE RATE     : 0.65         FERT. FACTOR : 1.00

 Cassava          CULTIVAR: UC0057-TMS13F1126P0003    ECOTYPE: 990016
  B01ND B12ND B23ND B34ND BR1FX BR2FX BR3FX BR4FX
  250.  200.  200.  200.  2.70  2.70  2.00  1.50
  LAXS  SLAS LLIFA LPEFR LNSLP NODWT NODLT
 350.0  220.1000.0   0.3  1.20  4.00  2.00


*SIMULATED CROP AND SOIL STATUS AT MAIN DEVELOPMENT STAGES
  
 RUN NO.      9   UYT_GXE                                                     

 ...... DATE ....... GROWTH STAGE    BIOMASS   LEAF       CROP N      STRESS
 YEARDOY DOM MON DAP ............... kg/ha  AREA NUMBER kg/ha    %   H2O     N
 2019231  19 Aug  62 1 1stBranch      1373 0.786   52.3    0 -99.0  0.00  0.00
 2019273  30 Sep 104 2 2ndBranch      3404 2.328   85.0    0 -99.0  0.00  0.00
 2019317  13 Nov 148 3 3rdBranch      4952 2.477  113.1    0 -99.0  0.00  0.00
 2020009   9 Jan 205 4 4thBranch      6338 1.683  137.1    0 -99.0  0.02  0.00
 2020083  23 Mar 279 5 5thBranch      7816 0.795  159.5    0 -99.0  0.07  0.00
 2020154   2 Jun 350 6 6thBranch      9506 0.820  179.9    0 -99.0  0.03  0.00
 2020198  16 Jul 394 7 7thBranch     10566 1.045  191.6    0 -99.0  0.00  0.00
 2020209  27 Jul 405 * Harvest       13193 1.101  194.3    0 -99.0  0.00  0.00
  

*MAIN GROWTH AND DEVELOPMENT VARIABLES

@     VARIABLE                           SIMULATED   MEASURED
      --------                           ---------   --------
      Germination  (dap)                      8        -99
      Emergence    (dap)                      8        -99
      1stBranch    (dap)                     62        -99
[...]
   Yield Productivity                       0.64 kg[Sroot yield]/m3[rain] =    6.4 kg[yield]/ha per mm[rain]

 Evapotranspiration during growth season  1561.6 mm[ET]
   Dry Matter Productivity                  0.77 kg[DM]/m3[ET]            =    7.7 kg[DM]/ha per mm[ET]
   Yield Productivity                       0.84 kg[Sroot yield]/m3[ET]   =    8.4 kg[yield]/ha per mm[ET]

 Transpiration during growth season        855.2 mm[EP]
   Dry Matter Productivity                  1.40 kg[DM]/m3[EP]            =   14.0 kg[DM]/ha per mm[EP]
   Yield Productivity                       1.54 kg[Sroot yield]/m3[EP]   =   15.4 kg[yield]/ha per mm[EP]

 Irrigation during growing season          487.4 mm[irrig]
   Dry Matter Productivity                  2.46 kg[DM]/m3[irrig]         =   24.6 kg[DM]/ha per mm[irrig]
   Yield Productivity                       2.71 kg[Sroot yield]/m3[irrig]=   27.1 kg[yield]/ha per mm[irrig]

--------------------------------------------------------------------------------------------------------------

          CASSAVA YIELD :    13193 kg/ha    [Dry weight] 

**************************************************************************************************************
  

*DSSAT Cropping System Model Ver. 4.8.0.019 -develop  DEC 23, 2021 14:23:48

*RUN  66        : TMS14F1311P0002           CSYCA048 UYAG1701   66
 MODEL          : CSYCA048 - Cassava
 EXPERIMENT     : UYAG1701 CS UYT_GXE
 DATA PATH      :
 TREATMENT 66   : TMS14F1311P0002           CSYCA048


 CROP           : Cassava          CULTIVAR : TMS14F1311P0002  ECOTYPE :990016
 STARTING DATE  : JUN 18 2019
 PLANTING DATE  : JUN 18 2019      PLANTS/m2 :     1.0    ROW SPACING : 100.cm
 HARVEST DATE   : JUL 27 2020
 WEATHER        : UYAB   2019
 SOIL           : CBAN840001     TEXTURE : SL    - Sandy-Clay Loam EL NUS: C
 SOIL INITIAL C : DEPTH:120cm EXTR. H2O:158.5mm  NO3:  0.0kg/ha  NH4:  0.0kg/ha
 WATER BALANCE  : AUTOMATIC IRRIGATION - REFILL PROFILE
 IRRIGATION     : AUTOMATIC [SOIL DEPTH: 0.30 m 50.%]
 NITROGEN BAL.  : NOT SIMULATED ; NO N-STRESS
 N-FERTILIZER   :
 RESIDUE/MANURE :
 ENVIRONM. OPT. : DAYL=    0.00  SRAD=    0.00  TMAX=    0.00  TMIN=    0.00
                  RAIN=    0.00  CO2 =    0.00  DEW =    0.00  WIND=    0.00
 SIMULATION OPT : WATER   :Y  NITROGEN:N  N-FIX:N  PHOSPH :N  PESTS  :N
                  PHOTO   :R  ET      :R  INFIL:S  HYDROL :R  SOM    :G
                  CO2 411ppm  NSWIT   :1  EVAP :S  SOIL   :2  STEMP  :D
 MANAGEMENT OPT : PLANTING:R  IRRIG   :A  FERT :N  RESIDUE:N  HARVEST:R
                  WEATHER :M  TILLAGE :Y

*SUMMARY OF SOIL AND GENETIC INPUT PARAMETERS

   SOIL LOWER UPPER   SAT  EXTR  INIT   ROOT   BULK     pH    NO3    NH4    ORG
  DEPTH LIMIT LIMIT    SW    SW    SW   DIST   DENS                          C
   cm   cm3/cm3    cm3/cm3    cm3/cm3         g/cm3         ugN/g  ugN/g     %
-------------------------------------------------------------------------------
  0-  5 0.190 0.330 0.430 0.140 0.330   0.95   1.36   4.80   0.00   0.00   1.40
  5- 15 0.190 0.335 0.430 0.145 0.335   0.82   1.36   4.80   0.00   0.00   1.21
 15- 20 0.190 0.320 0.430 0.130 0.320   0.70   1.38   4.80   0.00   0.00   1.03
 20- 25 0.190 0.320 0.430 0.130 0.320   0.63   1.40   5.30   0.00   0.00   0.93
 25- 30 0.190 0.310 0.430 0.120 0.310   0.58   1.41   5.30   0.00   0.00   0.85
 30- 35 0.190 0.330 0.430 0.140 0.330   0.52   1.42   5.30   0.00   0.00   0.76
 35- 40 0.190 0.330 0.430 0.140 0.330   0.47   1.43   5.30   0.00   0.00   0.70
 40- 55 0.190 0.320 0.400 0.130 0.320   0.33   1.44   5.30   0.00   0.00   0.50
 55- 70 0.190 0.320 0.400 0.130 0.320   0.33   1.44   5.30   0.00   0.00   0.50
 70- 95 0.190 0.320 0.400 0.130 0.320   0.15   1.48   5.30   0.00   0.00   0.22
 95-120 0.190 0.320 0.400 0.130 0.320   0.15   1.48   5.30   0.00   0.00   0.22

TOT-120  22.8  38.6  49.2  15.8  38.6  <--cm   -  kg/ha-->    0.0    0.0      0
SOIL ALBEDO    : 0.13      EVAPORATION LIMIT :11.50         MIN. FACTOR  : 1.00
RUNOFF CURVE # :75.00      DRAINAGE RATE     : 0.65         FERT. FACTOR : 1.00

 Cassava          CULTIVAR: UC0054-TMS14F1311P0002    ECOTYPE: 990016
  B01ND B12ND B23ND B34ND BR1FX BR2FX BR3FX BR4FX
  250.  200.  200.  200.  2.70  2.70  2.00  1.50
  LAXS  SLAS LLIFA LPEFR LNSLP NODWT NODLT
 350.0  220.1000.0   0.3  1.20  4.00  2.00


*SIMULATED CROP AND SOIL STATUS AT MAIN DEVELOPMENT STAGES
  
 RUN NO.     66   UYT_GXE                                                     

 ...... DATE ....... GROWTH STAGE    BIOMASS   LEAF       CROP N      STRESS
 YEARDOY DOM MON DAP ............... kg/ha  AREA NUMBER kg/ha    %   H2O     N
 2019231  19 Aug  62 1 1stBranch      1373 0.786   52.3    0 -99.0  0.00  0.00
 2019273  30 Sep 104 2 2ndBranch      3404 2.328   85.0    0 -99.0  0.00  0.00
 2019317  13 Nov 148 3 3rdBranch      4952 2.477  113.1    0 -99.0  0.00  0.00
 2020009   9 Jan 205 4 4thBranch      6338 1.683  137.1    0 -99.0  0.02  0.00
 2020083  23 Mar 279 5 5thBranch      7816 0.795  159.5    0 -99.0  0.07  0.00
 2020154   2 Jun 350 6 6thBranch      9506 0.820  179.9    0 -99.0  0.03  0.00
 2020198  16 Jul 394 7 7thBranch     10566 1.045  191.6    0 -99.0  0.00  0.00
 2020209  27 Jul 405 * Harvest       13193 1.101  194.3    0 -99.0  0.00  0.00
  

*MAIN GROWTH AND DEVELOPMENT VARIABLES

@     VARIABLE                           SIMULATED   MEASURED
      --------                           ---------   --------
      Germination  (dap)                      8        -99
      Emergence    (dap)                      8        -99
      1stBranch    (dap)                     62        -99
      2ndBranch    (dap)                    104        -99
      3rdBranch    (dap)                    148        -99
      4thBranch    (dap)                    205        -99
      5thBranch    (dap)                    279        -99
      6thBranch    (dap)                    350        -99
      7thBranch    (dap)                    394        -99
      Harvest      (dap)                  13193       8939
      AboveGround (kg dm/ha)              11972      11493
      Roots+seed residue (kg dm/ha)         598        -99
      Senesced (kg dm/ha)                  2764        -99
      Product (kg dm/ha)                  13193       8939
      AboveGroundVegetative (kg dm/ha)    11972      11493
      HarvestIndex (ratio)                 0.54       0.44
      Reserves (kg dm/ha)                  1314        -99
      Product unit wt (g dm)                -99        -99
      Product number (/m2)                  -99        -99
      Product number (/shoot)             -99.0      -99.0
      Maximum leaf area index               2.8    45336.0
      Final leaf number (one axis)        194.3      -99.0
      Assimilated N (kg/ha)               -99.0      -99.0
      AboveGround N (kg/ha)               -99.0      -99.0
      Root N (kg/ha)                      -99.0      -99.0
      Senesced N (kg/ha)                    0.0      -99.0
      Product N (kg/ha)                   -99.0      -99.0
      AboveGroundVegetative N (kg/ha)       0.0      -99.0
      N HarvestIndex (ratio)             -99.00     -99.00
      Product N (% dm)                    -99.0      -99.0
      AboveGroundVegetative N (% dm)      -99.0      -99.0

*ENVIRONMENTAL AND STRESS FACTORS

|-------Branching tier-------|-------------Environment--------------|----------------Stress-----------------|
                              |--------Average-------|---Cumulative--|         (0=Min, 1=Max Stress)         |
                         Time  Temp  Temp Solar Photop         Evapo |----Water---|--Nitrogen--|--Phosphorus-|
                         Span   Max   Min   Rad  [day]   Rain  Trans  Photo         Photo         Photo
                         days     C     C MJ/m2     hr     mm     mm  synth Growth  synth Growth  synth Growth
--------------------------------------------------------------------------------------------------------------
 Germinate  - 1stBranch    54  28.8  23.2  16.6  12.44  223.912821.5  0.000  0.000  0.000  0.000 -99.00 -99.00
 1stBranch  - 2ndBranch    42  29.9  22.9  17.4  12.11  443.112110.1  0.000  0.000  0.000  0.000 -99.00 -99.00
 2ndBranch  - 3rdBranch    44  31.3  22.7  17.6  11.74  784.612512.6  0.000  0.001  0.000  0.000 -99.00 -99.00
 3rdBranch  - 4thBranch    57  34.2  20.2  19.2  11.49   10.316606.1  0.021  0.186  0.000  0.000 -99.00 -99.00
 4thBranch  - 5thBranch    74  36.1  21.8  20.1  11.72   19.219124.8  0.074  0.324  0.000  0.000 -99.00 -99.00
 5thBranch  - 6thBranch    71  34.8  25.2  20.0  12.29  329.116851.1  0.034  0.236  0.000  0.000 -99.00 -99.00
 6thBranch  - 7thBranch    44  31.2  23.4  17.6  12.53  220.710479.9  0.000  0.000  0.000  0.000 -99.00 -99.00
 7thBranch  - 8thBranch    12  29.4  22.8  16.1  12.46   31.4 2557.7  0.000  0.000  0.000  0.000 -99.00 -99.00
 16thBranch - Harvest       0 -99.0 -99.0 -99.0 -99.00    0.0    0.0  0.000  0.000  0.000  0.000 -99.00 -99.00
  
 1stBranch  - Harvest     398  32.7  22.8  18.5  12.04 2062.3 1561.6  0.023  0.129  0.000  0.000 -99.00 -99.00
--------------------------------------------------------------------------------------------------------------


*RESOURCE PRODUCTIVITY

 Growing season length: 398 days 

 Precipitation during growth season       2062.3 mm[rain]
   Dry Matter Productivity                  0.58 kg[DM]/m3[rain]          =    5.8 kg[DM]/ha per mm[rain]
   Yield Productivity                       0.64 kg[Sroot yield]/m3[rain] =    6.4 kg[yield]/ha per mm[rain]

 Evapotranspiration during growth season  1561.6 mm[ET]
   Dry Matter Productivity                  0.77 kg[DM]/m3[ET]            =    7.7 kg[DM]/ha per mm[ET]
   Yield Productivity                       0.84 kg[Sroot yield]/m3[ET]   =    8.4 kg[yield]/ha per mm[ET]

 Transpiration during growth season        855.2 mm[EP]
   Dry Matter Productivity                  1.40 kg[DM]/m3[EP]            =   14.0 kg[DM]/ha per mm[EP]
   Yield Productivity                       1.54 kg[Sroot yield]/m3[EP]   =   15.4 kg[yield]/ha per mm[EP]

 Irrigation during growing season          487.4 mm[irrig]
   Dry Matter Productivity                  2.46 kg[DM]/m3[irrig]         =   24.6 kg[DM]/ha per mm[irrig]
   Yield Productivity                       2.71 kg[Sroot yield]/m3[irrig]=   27.1 kg[yield]/ha per mm[irrig]

--------------------------------------------------------------------------------------------------------------

          CASSAVA YIELD :    13193 kg/ha    [Dry weight] 

**************************************************************************************************************
  

*DSSAT Cropping System Model Ver. 4.8.0.019 -develop  DEC 23, 2021 14:23:48

*RUN  67        : TMS14F1312P0003           CSYCA048 UYAG1701   67
 MODEL          : CSYCA048 - Cassava
 EXPERIMENT     : UYAG1701 CS UYT_GXE
 DATA PATH      :
 TREATMENT 67   : TMS14F1312P0003           CSYCA048


 CROP           : Cassava          CULTIVAR : TMS14F1312P0003  ECOTYPE :990016
 STARTING DATE  : JUN 18 2019
 PLANTING DATE  : JUN 18 2019      PLANTS/m2 :     1.0    ROW SPACING : 100.cm
 HARVEST DATE   : JUL 27 2020
 WEATHER        : UYAB   2019
 SOIL           : CBAN840001     TEXTURE : SL    - Sandy-Clay Loam EL NUS: C
 SOIL INITIAL C : DEPTH:120cm EXTR. H2O:158.5mm  NO3:  0.0kg/ha  NH4:  0.0kg/ha
 WATER BALANCE  : AUTOMATIC IRRIGATION - REFILL PROFILE
 IRRIGATION     : AUTOMATIC [SOIL DEPTH: 0.30 m 50.%]
 NITROGEN BAL.  : NOT SIMULATED ; NO N-STRESS
 N-FERTILIZER   :
 RESIDUE/MANURE :
 ENVIRONM. OPT. : DAYL=    0.00  SRAD=    0.00  TMAX=    0.00  TMIN=    0.00
                  RAIN=    0.00  CO2 =    0.00  DEW =    0.00  WIND=    0.00
 SIMULATION OPT : WATER   :Y  NITROGEN:N  N-FIX:N  PHOSPH :N  PESTS  :N
                  PHOTO   :R  ET      :R  INFIL:S  HYDROL :R  SOM    :G
                  CO2 411ppm  NSWIT   :1  EVAP :S  SOIL   :2  STEMP  :D
 MANAGEMENT OPT : PLANTING:R  IRRIG   :A  FERT :N  RESIDUE:N  HARVEST:R
                  WEATHER :M  TILLAGE :Y

*SUMMARY OF SOIL AND GENETIC INPUT PARAMETERS

   SOIL LOWER UPPER   SAT  EXTR  INIT   ROOT   BULK     pH    NO3    NH4    ORG
  DEPTH LIMIT LIMIT    SW    SW    SW   DIST   DENS                          C
   cm   cm3/cm3    cm3/cm3    cm3/cm3         g/cm3         ugN/g  ugN/g     %
-------------------------------------------------------------------------------
  0-  5 0.190 0.330 0.430 0.140 0.330   0.95   1.36   4.80   0.00   0.00   1.40
  5- 15 0.190 0.335 0.430 0.145 0.335   0.82   1.36   4.80   0.00   0.00   1.21
 15- 20 0.190 0.320 0.430 0.130 0.320   0.70   1.38   4.80   0.00   0.00   1.03
 20- 25 0.190 0.320 0.430 0.130 0.320   0.63   1.40   5.30   0.00   0.00   0.93
 25- 30 0.190 0.310 0.430 0.120 0.310   0.58   1.41   5.30   0.00   0.00   0.85
 30- 35 0.190 0.330 0.430 0.140 0.330   0.52   1.42   5.30   0.00   0.00   0.76
 35- 40 0.190 0.330 0.430 0.140 0.330   0.47   1.43   5.30   0.00   0.00   0.70
 40- 55 0.190 0.320 0.400 0.130 0.320   0.33   1.44   5.30   0.00   0.00   0.50
 55- 70 0.190 0.320 0.400 0.130 0.320   0.33   1.44   5.30   0.00   0.00   0.50
 70- 95 0.190 0.320 0.400 0.130 0.320   0.15   1.48   5.30   0.00   0.00   0.22
 95-120 0.190 0.320 0.400 0.130 0.320   0.15   1.48   5.30   0.00   0.00   0.22

TOT-120  22.8  38.6  49.2  15.8  38.6  <--cm   -  kg/ha-->    0.0    0.0      0
SOIL ALBEDO    : 0.13      EVAPORATION LIMIT :11.50         MIN. FACTOR  : 1.00
RUNOFF CURVE # :75.00      DRAINAGE RATE     : 0.65         FERT. FACTOR : 1.00

 Cassava          CULTIVAR: UC0055-TMS14F1312P0003    ECOTYPE: 990016
  B01ND B12ND B23ND B34ND BR1FX BR2FX BR3FX BR4FX
  250.  200.  200.  200.  2.70  2.70  2.00  1.50
  LAXS  SLAS LLIFA LPEFR LNSLP NODWT NODLT
 350.0  220.1000.0   0.3  1.20  4.00  2.00


*SIMULATED CROP AND SOIL STATUS AT MAIN DEVELOPMENT STAGES
  
 RUN NO.     67   UYT_GXE                                                     

 ...... DATE ....... GROWTH STAGE    BIOMASS   LEAF       CROP N      STRESS
 YEARDOY DOM MON DAP ............... kg/ha  AREA NUMBER kg/ha    %   H2O     N
 2019231  19 Aug  62 1 1stBranch      1373 0.786   52.3    0 -99.0  0.00  0.00
 2019273  30 Sep 104 2 2ndBranch      3404 2.328   85.0    0 -99.0  0.00  0.00
 2019317  13 Nov 148 3 3rdBranch      4952 2.477  113.1    0 -99.0  0.00  0.00
 2020009   9 Jan 205 4 4thBranch      6338 1.683  137.1    0 -99.0  0.02  0.00
 2020083  23 Mar 279 5 5thBranch      7816 0.795  159.5    0 -99.0  0.07  0.00
 2020154   2 Jun 350 6 6thBranch      9506 0.820  179.9    0 -99.0  0.03  0.00
 2020198  16 Jul 394 7 7thBranch     10566 1.045  191.6    0 -99.0  0.00  0.00
 2020209  27 Jul 405 * Harvest       13193 1.101  194.3    0 -99.0  0.00  0.00
  

*MAIN GROWTH AND DEVELOPMENT VARIABLES

@     VARIABLE                           SIMULATED   MEASURED
      --------                           ---------   --------
      Germination  (dap)                      8        -99
      Emergence    (dap)                      8        -99
      1stBranch    (dap)                     62        -99
      2ndBranch    (dap)                    104        -99
      3rdBranch    (dap)                    148        -99
      4thBranch    (dap)                    205        -99
      5thBranch    (dap)                    279        -99
      6thBranch    (dap)                    350        -99
      7thBranch    (dap)                    394        -99
      Harvest      (dap)                  13193       8899
      AboveGround (kg dm/ha)              11972      13229
      Roots+seed residue (kg dm/ha)         598        -99
      Senesced (kg dm/ha)                  2764        -99
      Product (kg dm/ha)                  13193       8899
      AboveGroundVegetative (kg dm/ha)    11972      13229
      HarvestIndex (ratio)                 0.54       0.40
      Reserves (kg dm/ha)                  1314        -99
      Product unit wt (g dm)                -99        -99
      Product number (/m2)                  -99        -99
      Product number (/shoot)             -99.0      -99.0
      Maximum leaf area index               2.8    42960.0
      Final leaf number (one axis)        194.3      -99.0
      Assimilated N (kg/ha)               -99.0      -99.0
      AboveGround N (kg/ha)               -99.0      -99.0
      Root N (kg/ha)                      -99.0      -99.0
      Senesced N (kg/ha)                    0.0      -99.0
      Product N (kg/ha)                   -99.0      -99.0
      AboveGroundVegetative N (kg/ha)       0.0      -99.0
      N HarvestIndex (ratio)             -99.00     -99.00
      Product N (% dm)                    -99.0      -99.0
      AboveGroundVegetative N (% dm)      -99.0      -99.0

*ENVIRONMENTAL AND STRESS FACTORS

|-------Branching tier-------|-------------Environment--------------|----------------Stress-----------------|
                              |--------Average-------|---Cumulative--|         (0=Min, 1=Max Stress)         |
                         Time  Temp  Temp Solar Photop         Evapo |----Water---|--Nitrogen--|--Phosphorus-|
                         Span   Max   Min   Rad  [day]   Rain  Trans  Photo         Photo         Photo
                         days     C     C MJ/m2     hr     mm     mm  synth Growth  synth Growth  synth Growth
--------------------------------------------------------------------------------------------------------------
 Germinate  - 1stBranch    54  28.8  23.2  16.6  12.44  223.913015.8  0.000  0.000  0.000  0.000 -99.00 -99.00
 1stBranch  - 2ndBranch    42  29.9  22.9  17.4  12.11  443.112293.5  0.000  0.000  0.000  0.000 -99.00 -99.00
 2ndBranch  - 3rdBranch    44  31.3  22.7  17.6  11.74  784.612702.2  0.000  0.001  0.000  0.000 -99.00 -99.00
 3rdBranch  - 4thBranch    57  34.2  20.2  19.2  11.49   10.316857.7  0.021  0.186  0.000  0.000 -99.00 -99.00
 4thBranch  - 5thBranch    74  36.1  21.8  20.1  11.72   19.219414.5  0.074  0.324  0.000  0.000 -99.00 -99.00
 5thBranch  - 6thBranch    71  34.8  25.2  20.0  12.29  329.117106.4  0.034  0.236  0.000  0.000 -99.00 -99.00
 6thBranch  - 7thBranch    44  31.2  23.4  17.6  12.53  220.710638.6  0.000  0.000  0.000  0.000 -99.00 -99.00
 7thBranch  - 8thBranch    12  29.4  22.8  16.1  12.46   31.4 2596.5  0.000  0.000  0.000  0.000 -99.00 -99.00
 16thBranch - Harvest       0 -99.0 -99.0 -99.0 -99.00    0.0    0.0  0.000  0.000  0.000  0.000 -99.00 -99.00
  
 1stBranch  - Harvest     398  32.7  22.8  18.5  12.04 2062.3 1561.6  0.023  0.129  0.000  0.000 -99.00 -99.00
--------------------------------------------------------------------------------------------------------------


*RESOURCE PRODUCTIVITY

 Growing season length: 398 days 

 Precipitation during growth season       2062.3 mm[rain]
   Dry Matter Productivity                  0.58 kg[DM]/m3[rain]          =    5.8 kg[DM]/ha per mm[rain]
   Yield Productivity                       0.64 kg[Sroot yield]/m3[rain] =    6.4 kg[yield]/ha per mm[rain]

 Evapotranspiration during growth season  1561.6 mm[ET]
   Dry Matter Productivity                  0.77 kg[DM]/m3[ET]            =    7.7 kg[DM]/ha per mm[ET]
   Yield Productivity                       0.84 kg[Sroot yield]/m3[ET]   =    8.4 kg[yield]/ha per mm[ET]

 Transpiration during growth season        855.2 mm[EP]
   Dry Matter Productivity                  1.40 kg[DM]/m3[EP]            =   14.0 kg[DM]/ha per mm[EP]
   Yield Productivity                       1.54 kg[Sroot yield]/m3[EP]   =   15.4 kg[yield]/ha per mm[EP]

 Irrigation during growing season          487.4 mm[irrig]
   Dry Matter Productivity                  2.46 kg[DM]/m3[irrig]         =   24.6 kg[DM]/ha per mm[irrig]
   Yield Productivity                       2.71 kg[Sroot yield]/m3[irrig]=   27.1 kg[yield]/ha per mm[irrig]

--------------------------------------------------------------------------------------------------------------

          CASSAVA YIELD :    13193 kg/ha    [Dry weight] 

**************************************************************************************************************
