$GROWTH FACTOR OUTPUTS FILE

*DSSAT Cropping System Model Ver. 4.8.0.019 -develop  DEC 23, 2021 14:23:35

*RUN   1        : IITA-TMS-IBA000070        CSYCA048 UYAG1701    1
 MODEL          : CSYCA048 - Cassava
 EXPERIMENT     : UYAG1701 CS UYT_GXE
 DATA PATH      :
 TREATMENT  1   : IITA-TMS-IBA000070        CSYCA048
  
!........DATES.......  ...TEMP... STAGE  ...PHENOLOGY....  ....PHOTOSYNTHESIS....  .....GROWTH..... H2O STRESS DETERMINANTS .N STRESS DETERMINANTS.
@YEAR DOY   DAS   DAP TMEAN TCDIF  GSTD    DU DYLFD  TFPD  WFPD  NFPD CO2FD RSFPD  TFGD  WFGD  NFGD WAVRD WUPRD  SWXD  EOPD  SNXD LN%RD SN%RD RN%RD            
 2019 169     0     0  28.9 -99.0     0   0.0  0.00  0.00  0.00  0.00  0.00  0.00  0.00  0.00  0.00 99.90  1.00  26.5  0.00   0.0  0.00  0.00  0.00
 2019 170     1     1  29.0 -29.0     0   0.0  0.00  0.00  0.00  0.00  0.00  0.00  0.00  0.00  0.00 99.90  1.00  31.1  0.00   0.0  0.00  0.00  0.00
 2019 171     2     2  26.7 -26.7     0   0.0  0.00  0.00  0.00  0.00  0.00  0.00  0.00  0.00  0.00 99.90  1.00  28.0  0.00   0.0  0.00  0.00  0.00
 2019 172     3     3  27.7 -27.7     0   0.0  0.00  0.00  0.00  0.00  0.00  0.00  0.00  0.00  0.00 99.90  1.00  25.2  0.00   0.0  0.00  0.00  0.00
 2019 173     4     4  25.8 -25.8     0   0.0  0.00  0.00  0.00  0.00  0.00  0.00  0.00  0.00  0.00 99.90  1.00  28.1  0.00   0.0  0.00  0.00  0.00
 2019 174     5     5  27.6 -27.6     0   0.0  0.00  0.00  0.00  0.00  0.00  0.00  0.00  0.00  0.00 99.90  1.00  25.9  0.00   0.0  0.00  0.00  0.00
 2019 175     6     6  24.4 -24.4     0   0.0  0.00  0.00  0.00  0.00  0.00  0.00  0.00  0.00  0.00 99.90  1.00  32.9  0.00   0.0  0.00  0.00  0.00
 2019 176     7     7  26.4 -26.4     0   0.0  0.00  0.00  0.00  0.00  0.00  0.00  0.00  0.00  0.00 99.90  1.00  27.4  0.00   0.0  0.00  0.00  0.00
 2019 177     8     8  25.0 -25.0     0   0.0  0.00  0.00  0.00  0.00 -0.06  0.00  0.00  0.00  0.00 99.90  1.00  27.5  0.00   0.0  1.00  1.00  1.00
 2019 178     9     9  25.0 -25.0 .0200   5.0  0.00  0.00  0.00  0.00 -0.06  0.00  0.00  0.00  0.00 99.90  1.00  27.8  0.00   0.0  1.00  1.00  1.00
 2019 179    10    10  26.4 -26.4 .0400   5.0  0.00  0.00  0.00  0.00 -0.06  0.00  0.00  0.00  0.00 99.90  1.00  28.1  0.00   0.0  1.00  1.00  1.00
 2019 180    11    11  27.3 -27.3 .0585   4.6  0.00  0.00  0.00  0.00 -0.06  0.00  0.00  0.00  0.00 99.90  1.00  28.5  0.00   0.0  1.00  1.00  1.00
 2019 181    12    12  27.4 -27.4 .0758   4.3  0.00  0.00  0.00  0.00 -0.06  0.00  0.00  0.00  0.00 99.90  1.00  36.2  0.00   0.0  1.00  1.00  1.00
 2019 182    13    13  25.8 -25.8 .0931   4.3  0.00  0.00  0.00  0.00 -0.06  0.00  0.00  0.00  0.00 99.90  1.00  38.5  0.00   0.0  1.00  1.00  1.00
 2019 183    14    14  26.5 -26.5 0.112   4.8  0.00  0.00  0.00  0.00 -0.06  0.00  0.00  0.00  0.00 99.90  1.00  36.6  0.00   0.0  1.00  1.00  1.00
 2019 184    15    15  26.8 -26.8 0.131   4.6  0.00  0.00  0.00  0.00 -0.06  0.00  0.00  0.00  0.00 99.90  1.00  39.1  0.01   0.0  1.00  1.00  1.00
 2019 185    16    16  26.8 -26.8 0.148   4.5  0.00  0.00  0.00  0.00 -0.06  0.00  0.00  0.00  0.00 99.90  1.00  51.4  0.02   0.0  1.00  1.00  1.00
 2019 186    17    17  25.7 -25.7 0.166   4.5  0.00  0.00  0.00  0.00 -0.06  0.00  0.00  0.00  0.00 99.90  1.00  53.3  0.03   0.0  1.00  1.00  1.00
 2019 187    18    18  27.2 -27.2 0.186   4.8  0.00  0.00  0.00  0.00 -0.06  0.00  0.00  0.00  0.00 99.90  1.00  50.1  0.05   0.0  1.00  1.00  1.00
 2019 188    19    19  27.2 -27.2 0.203   4.4  0.00  0.00  0.00  0.00 -0.06  0.00  0.00  0.00  0.00 99.90  1.00  56.4  0.07   0.0  1.00  1.00  1.00
 2019 189    20    20  23.8 -23.8 0.221   4.4  0.00  0.08  0.00  0.00 -0.06  0.00  0.01  0.00  0.00 99.90  1.00  54.8  0.09   0.0  1.00  1.00  1.00
 2019 190    21    21  26.4 -26.4 0.241   5.0  0.00  0.00  0.00  0.00 -0.06  0.00  0.00  0.00  0.00 99.90  1.00  52.1  0.12   0.0  1.00  1.00  1.00
 2019 191    22    22  26.0 -26.0 0.259   4.6  0.00  0.00  0.00  0.00 -0.06  0.00  0.00  0.00  0.00 99.90  1.00  50.6  0.15   0.0  1.00  1.00  1.00
 2019 192    23    23  24.4 -24.4 0.278   4.7  0.00  0.04  0.00  0.00 -0.06  0.00  0.00  0.00  0.00 99.90  1.00  51.2  0.15   0.0  1.00  1.00  1.00
 2019 193    24    24  25.5 -25.5 0.298   5.0  0.00  0.00  0.00  0.00 -0.06  0.00  0.00  0.00  0.00 99.90  1.00  65.6  0.19   0.0  1.00  1.00  1.00
 2019 194    25    25  26.5 -26.5 0.317   4.9  0.00  0.00  0.00  0.00 -0.06  0.00  0.00  0.00  0.00 99.90  1.00  56.6  0.25   0.0  1.00  1.00  1.00
 2019 195    26    26  26.0 -26.0 0.336   4.6  0.00  0.00  0.00  0.00 -0.06  0.00  0.00  0.00  0.00 99.90  1.00  69.1  0.27   0.0  1.00  1.00  1.00
 2019 196    27    27  26.2 -26.2 0.355   4.7  0.00  0.00  0.00  0.00 -0.06  0.00  0.00  0.00  0.00 99.90  1.00  70.6  0.29   0.0  1.00  1.00  1.00
 2019 197    28    28  27.5 -27.5 0.373   4.7  0.00  0.00  0.00  0.00 -0.06  0.00  0.00  0.00  0.00 99.90  1.00  65.6  0.35   0.0  1.00  1.00  1.00
 2019 198    29    29  27.4 -27.4 0.390   4.3  0.00  0.00  0.00  0.00 -0.06  0.00  0.00  0.00  0.00 99.90  1.00  62.8  0.40   0.0  1.00  1.00  1.00
 2019 199    30    30  26.5 -26.5 0.408   4.3  0.00  0.00  0.00  0.00 -0.06  0.00  0.00  0.00  0.00 99.90  1.00  59.2  0.35   0.0  1.00  1.00  1.00
 2019 200    31    31  24.8 -24.8 0.426   4.6  0.00  0.02  0.00  0.00 -0.06  0.00  0.00  0.00  0.00 99.90  1.00  69.5  0.38   0.0  1.00  1.00  1.00
 2019 201    32    32  26.0 -26.0 0.446   5.0  0.00  0.00  0.00  0.00 -0.06  0.00  0.00  0.00  0.00 99.90  1.00  67.3  0.49   0.0  1.00  1.00  1.00
 2019 202    33    33  26.4 -26.4 0.465   4.7  0.00  0.00  0.00  0.00 -0.06  0.00  0.00  0.00  0.00 99.90  1.00  63.3  0.52   0.0  1.00  1.00  1.00
 2019 203    34    34  25.7 -25.7 0.483   4.6  0.00  0.00  0.00  0.00 -0.06  0.00  0.00  0.00  0.00 99.90  1.00  64.5  0.49   0.0  1.00  1.00  1.00
 2019 204    35    35  26.8 -26.8 0.502   4.8  0.00  0.00  0.00  0.00 -0.06  0.00  0.00  0.00  0.00 99.90  1.00  64.4  0.57   0.0  1.00  1.00  1.00
 2019 205    36    36  27.7 -27.7 0.520   4.5  0.00  0.00  0.00  0.00 -0.06  0.00  0.00  0.00  0.00 99.90  1.00  63.9  0.56   0.0  1.00  1.00  1.00
 2019 206    37    37  24.8 -24.8 0.537   4.2  0.00  0.01  0.00  0.00 -0.06  0.00  0.00  0.00  0.00 99.90  1.00  70.0  0.56   0.0  1.00  1.00  1.00
 2019 207    38    38  25.8 -25.8 0.557   5.0  0.00  0.00  0.00  0.00 -0.06  0.00  0.00  0.00  0.00 99.90  1.00  68.5  0.56   0.0  1.00  1.00  1.00
 2019 208    39    39  25.9 -25.9 0.576   4.8  0.00  0.00  0.00  0.00 -0.06  0.00  0.00  0.00  0.00 99.90  1.00  67.6  0.62   0.0  1.00  1.00  1.00
 2019 209    40    40  26.1 -26.1 0.595   4.8  0.00  0.00  0.00  0.00 -0.06  0.00  0.00  0.00  0.00 97.07  1.00  66.7  0.69   0.0  1.00  1.00  1.00
 2019 210    41    41  26.2 -26.2 0.614   4.7  0.00  0.00  0.00  0.00 -0.06  0.00  0.00  0.00  0.00 94.92  1.00  65.9  0.69   0.0  1.00  1.00  1.00
 2019 211    42    42  26.5 -26.5 0.633   4.6  0.00  0.00  0.00  0.00 -0.06  0.00  0.00  0.00  0.00 93.89  1.00  65.4  0.70   0.0  1.00  1.00  1.00
 2019 212    43    43  26.2 -26.2 0.651   4.6  0.00  0.00  0.00  0.00 -0.06  0.00  0.00  0.00  0.00 84.92  1.00  64.7  0.76   0.0  1.00  1.00  1.00
 2019 213    44    44  25.8 -25.8 0.670   4.6  0.00  0.00  0.00  0.00 -0.06  0.00  0.00  0.01  0.00 86.21  1.00  71.4  0.83   0.0  1.00  1.00  1.00
 2019 214    45    45  25.1 -25.1 0.689   4.8  0.00  0.00  0.00  0.00 -0.06  0.00  0.00  0.00  0.00 92.49  1.00  75.6  0.82   0.0  1.00  1.00  1.00
 2019 215    46    46  25.8 -25.8 0.708   5.0  0.00  0.00  0.00  0.00 -0.06  0.00  0.00  0.00  0.00 86.81  1.00  73.4  0.85   0.0  1.00  1.00  1.00
 2019 216    47    47  26.0 -26.0 0.728   4.8  0.00  0.00  0.00  0.00 -0.06  0.00  0.00  0.00  0.00 74.48  1.00  72.2  0.97   0.0  1.00  1.00  1.00
 2019 217    48    48  25.8 -25.8 0.746   4.7  0.00  0.00  0.00  0.00 -0.06  0.00  0.00  0.00  0.00 91.57  1.00  86.7  0.95   0.0  1.00  1.00  1.00
 2019 218    49    49  25.8 -25.8 0.765   4.8  0.00  0.00  0.00  0.00 -0.06  0.00  0.00  0.00  0.00 95.20  1.00  92.1  0.97   0.0  1.00  1.00  1.00
 2019 219    50    50  24.2 -24.2 0.785   4.8  0.00  0.06  0.00  0.00 -0.06  0.00  0.00  0.00  0.00 99.90  1.00  96.9  0.93   0.0  1.00  1.00  1.00
 2019 220    51    51  24.7 -24.7 0.805   5.0  0.00  0.02  0.00  0.00 -0.06  0.00  0.00  0.00  0.00 94.57  1.00  94.4  1.00   0.0  1.00  1.00  1.00
 2019 221    52    52  25.6 -25.6 0.825   5.0  0.00  0.00  0.00  0.00 -0.06  0.00  0.00  0.00  0.00 83.07  1.00  91.8  1.10   0.0  1.00  1.00  1.00
 2019 222    53    53  26.4 -26.4 0.844   4.8  0.00  0.00  0.00  0.00 -0.06  0.00  0.00  0.00  0.00 73.63  1.00  86.9  1.18   0.0  1.00  1.00  1.00
 2019 223    54    54  26.5 -26.5 0.862   4.6  0.00  0.00  0.00  0.00 -0.06  0.00  0.00  0.00  0.00 80.04  1.00  90.7  1.13   0.0  1.00  1.00  1.00
 2019 224    55    55  24.9 -24.9 0.880   4.6  0.00  0.01  0.00  0.00 -0.06  0.00  0.00  0.00  0.00 75.03  1.00  88.8  1.18   0.0  1.00  1.00  1.00
 2019 225    56    56  26.2 -26.2 0.900   5.0  0.00  0.00  0.00  0.00 -0.06  0.00  0.00  0.00  0.00 68.08  1.00  87.6  1.29   0.0  1.00  1.00  1.00
 2019 226    57    57  26.5 -26.5 0.919   4.7  0.00  0.00  0.00  0.00 -0.06  0.00  0.00  0.00  0.00 63.62  1.00  85.9  1.35   0.0  1.00  1.00  1.00
 2019 227    58    58  25.3 -25.3 0.937   4.6  0.00  0.00  0.00  0.00 -0.06  0.00  0.00  0.00  0.00 65.66  1.00  86.1  1.31   0.0  1.00  1.00  1.00
 2019 228    59    59  25.3 -25.3 0.957   4.9  0.00  0.00  0.00  0.00 -0.06  0.00  0.00  0.00  0.00 66.11  1.00  86.0  1.30   0.0  1.00  1.00  1.00
 2019 229    60    60  26.4 -26.4 0.977   4.9  0.00  0.00  0.00  0.00 -0.06  0.00  0.00  0.00  0.00 59.70  1.00  84.3  1.41   0.0  1.00  1.00  1.00
 2019 230    61    61  25.7 -25.7     1   4.6  0.00  0.00  0.00  0.00 -0.06  0.00  0.00  0.00  0.00 74.94  1.00 104.6  1.40   0.0  1.00  1.00  1.00
 2019 231    62    62  25.3 -25.3 1.046  10.4  0.00  0.00  0.00  0.00 -0.06  0.00  0.00  0.00  0.00 75.25  1.00 103.4  1.37   0.0  1.00  1.00  1.00
 2019 232    63    63  26.8 -26.8 1.070   4.9  0.00  0.00  0.00  0.00 -0.06  0.00  0.00  0.00  0.00 66.08  1.00 100.1  1.52   0.0  1.00  1.00  1.00
 2019 233    64    64  26.4 -26.4 1.093   4.5  0.00  0.00  0.00  0.00 -0.06  0.00  0.00  0.00  0.00 80.02  1.00 116.6  1.46   0.0  1.00  1.00  1.00
 2019 234    65    65  25.8 -25.8 1.116   4.6  0.00  0.00  0.00  0.00 -0.06  0.00  0.00  0.00  0.00 70.37  1.00 113.8  1.62   0.0  1.00  1.00  1.00
 2019 235    66    66  25.6 -25.6 1.140   4.8  0.00  0.00  0.00  0.00 -0.06  0.00  0.00  0.00  0.00 90.42  1.00 125.4  1.39   0.0  1.00  1.00  1.00
 2019 236    67    67  25.5 -25.5 1.164   4.8  0.00  0.00  0.00  0.00 -0.06  0.00  0.00  0.00  0.00 78.20  1.00 119.7  1.53   0.0  1.00  1.00  1.00
 2019 237    68    68  25.6 -25.6 1.188   4.8  0.00  0.00  0.00  0.00 -0.06  0.00  0.00  0.00  0.00 65.26  1.00 117.1  1.80   0.0  1.00  1.00  1.00
 2019 238    69    69  25.9 -25.9 1.212   4.8  0.00  0.00  0.00  0.00 -0.06  0.00  0.00  0.00  0.00 58.84  1.00 108.6  1.85   0.0  1.00  1.00  1.00
 2019 239    70    70  24.7 -24.7 1.236   4.7  0.00  0.02  0.00  0.00 -0.06  0.00  0.00  0.00  0.00 62.98  1.00 109.9  1.75   0.0  1.00  1.00  1.00
 2019 240    71    71  26.3 -26.3 1.261   5.0  0.00  0.00  0.00  0.00 -0.06  0.00  0.00  0.00  0.00 58.98  1.00 110.4  1.87   0.0  1.00  1.00  1.00
 2019 241    72    72  26.9 -26.9 1.284   4.6  0.00  0.00  0.00  0.00 -0.06  0.00  0.00  0.00  0.00 50.20  1.00 110.8  2.21   0.0  1.00  1.00  1.00
 2019 242    73    73  26.9 -26.9 1.306   4.5  0.00  0.00  0.00  0.00 -0.06  0.00  0.00  0.00  0.00 53.16  1.00 108.5  2.04   0.0  1.00  1.00  1.00
 2019 243    74    74  25.8 -25.8 1.328   4.5  0.00  0.00  0.00  0.00 -0.06  0.00  0.00  0.00  0.00 62.05  1.00 129.4  2.09   0.0  1.00  1.00  1.00
 2019 244    75    75  26.2 -26.2 1.352   4.8  0.00  0.00  0.00  0.00 -0.06  0.00  0.00  0.00  0.00 48.26  1.00 117.7  2.44   0.0  1.00  1.00  1.00
 2019 245    76    76  26.1 -26.1 1.376   4.7  0.00  0.00  0.00  0.00 -0.06  0.00  0.00  0.00  0.00 50.63  1.00 115.6  2.28   0.0  1.00  1.00  1.00
 2019 246    77    77  27.0 -27.0 1.399   4.7  0.00  0.00  0.00  0.00 -0.06  0.00  0.00  0.00  0.00 48.73  1.00 116.9  2.40   0.0  1.00  1.00  1.00
 2019 247    78    78  27.1 -27.1 1.421   4.4  0.00  0.00  0.00  0.00 -0.06  0.00  0.00  0.00  0.00 52.50  1.00 127.7  2.43   0.0  1.00  1.00  1.00
 2019 248    79    79  26.0 -26.0 1.443   4.4  0.00  0.00  0.00  0.00 -0.06  0.00  0.00  0.00  0.00 58.47  1.00 146.9  2.51   0.0  1.00  1.00  1.00
 2019 249    80    80  26.9 -26.9 1.467   4.7  0.00  0.00  0.00  0.00 -0.06  0.00  0.00  0.00  0.00 51.64  1.00 137.0  2.65   0.0  1.00  1.00  1.00
 2019 250    81    81  27.0 -27.0 1.489   4.5  0.00  0.00  0.00  0.00 -0.06  0.00  0.00  0.00  0.00 51.85  1.00 135.4  2.61   0.0  1.00  1.00  1.00
 2019 251    82    82  26.0 -26.0 1.511   4.4  0.00  0.00  0.00  0.00 -0.06  0.00  0.00  0.00  0.00 53.83  1.00 130.9  2.43   0.0  1.00  1.00  1.00
 2019 252    83    83  25.5 -25.5 1.535   4.7  0.00  0.00  0.00  0.00 -0.06  0.00  0.00  0.00  0.00 53.11  1.00 135.6  2.55   0.0  1.00  1.00  1.00
 2019 253    84    84  26.1 -26.1 1.559   4.8  0.00  0.00  0.00  0.00 -0.06  0.00  0.00  0.00  0.00 57.45  1.00 153.6  2.67   0.0  1.00  1.00  1.00
 2019 254    85    85  26.0 -26.0 1.582   4.7  0.00  0.00  0.00  0.00 -0.06  0.00  0.00  0.00  0.00 56.63  1.00 153.0  2.70   0.0  1.00  1.00  1.00
 2019 255    86    86  26.8 -26.8 1.606   4.7  0.00  0.00  0.00  0.00 -0.06  0.00  0.00  0.00  0.00 52.58  1.00 144.4  2.75   0.0  1.00  1.00  1.00
 2019 256    87    87  27.6 -27.6 1.628   4.5  0.00  0.00  0.00  0.00 -0.06  0.00  0.00  0.00  0.00 51.39  1.00 140.8  2.74   0.0  1.00  1.00  1.00
 2019 257    88    88  27.0 -27.0 1.650   4.3  0.00  0.00  0.00  0.00 -0.06  0.00  0.00  0.00  0.00 50.88  1.00 140.5  2.76   0.0  1.00  1.00  1.00
 2019 258    89    89  26.6 -26.6 1.672   4.4  0.00  0.00  0.00  0.00 -0.06  0.00  0.00  0.00  0.00 47.18  1.00 137.1  2.91   0.0  1.00  1.00  1.00
 2019 259    90    90  25.6 -25.6 1.695   4.5  0.00  0.00  0.00  0.00 -0.06  0.00  0.00  0.00  0.00 62.10  1.00 157.8  2.54   0.0  1.00  1.00  1.00
 2019 260    91    91  26.7 -26.7 1.719   4.8  0.00  0.00  0.00  0.00 -0.06  0.00  0.00  0.00  0.00 55.05  1.00 150.8  2.74   0.0  1.00  1.00  1.00
 2019 261    92    92  27.1 -27.1 1.741   4.5  0.00  0.00  0.00  0.00 -0.06  0.00  0.00  0.00  0.00 54.73  1.00 166.5  3.04   0.0  1.00  1.00  1.00
 2019 262    93    93  25.5 -25.5 1.763   4.4  0.00  0.00  0.00  0.00 -0.06  0.00  0.00  0.00  0.00 59.86  1.00 158.5  2.65   0.0  1.00  1.00  1.00
 2019 263    94    94  26.8 -26.8 1.787   4.8  0.00  0.00  0.00  0.00 -0.06  0.00  0.00  0.00  0.00 41.84  1.00 142.4  3.40   0.0  1.00  1.00  1.00
 2019 264    95    95  26.6 -26.6 1.810   4.5  0.00  0.00  0.00  0.00 -0.06  0.00  0.00  0.00  0.00 44.03  1.00 145.4  3.30   0.0  1.00  1.00  1.00
 2019 265    96    96  27.0 -27.0 1.833   4.5  0.00  0.00  0.00  0.00 -0.06  0.00  0.00  0.00  0.00 41.74  1.00 143.1  3.43   0.0  1.00  1.00  1.00
 2019 266    97    97  27.8 -27.8 1.855   4.4  0.00  0.00  0.00  0.00 -0.06  0.00  0.00  0.00  0.00 47.82  1.00 147.3  3.08   0.0  1.00  1.00  1.00
 2019 267    98    98  27.5 -27.5 1.876   4.2  0.00  0.00  0.00  0.00 -0.06  0.00  0.00  0.00  0.00 51.73  1.00 161.2  3.12   0.0  1.00  1.00  1.00
 2019 268    99    99  27.7 -27.7 1.897   4.3  0.00  0.00  0.00  0.00 -0.06  0.00  0.00  0.00  0.00 49.17  1.00 168.4  3.42   0.0  1.00  1.00  1.00
 2019 269   100   100  26.5 -26.5 1.918   4.2  0.00  0.00  0.00  0.00 -0.06  0.00  0.00  0.00  0.00 53.37  1.00 168.0  3.15   0.0  1.00  1.00  1.00
 2019 270   101   101  25.9 -25.9 1.941   4.6  0.00  0.00  0.00  0.00 -0.06  0.00  0.00  0.00  0.00 59.92  1.00 176.1  2.94   0.0  1.00  1.00  1.00
 2019 271   102   102  26.9 -26.9 1.965   4.7  0.00  0.00  0.00  0.00 -0.06  0.00  0.00  0.00  0.00 52.09  1.00 177.3  3.40   0.0  1.00  1.00  1.00
 2019 272   103   103  27.1 -27.1 1.987   4.5  0.00  0.00  0.00  0.00 -0.06  0.00  0.00  0.00  0.00 53.78  1.00 170.8  3.18   0.0  1.00  1.00  1.00
 2019 273   104   104  27.4 -27.4 2.030   8.6  0.00  0.00  0.00  0.00 -0.06  0.00  0.00  0.00  0.00 54.09  1.00 165.0  3.05   0.0  1.00  1.00  1.00
 2019 274   105   105  27.3 -27.3 2.052   4.3  0.00  0.00  0.00  0.00 -0.06  0.00  0.00  0.00  0.00 54.44  1.00 171.1  3.14   0.0  1.00  1.00  1.00
 2019 275   106   106  26.1 -26.1 2.074   4.3  0.00  0.00  0.00  0.00 -0.06  0.00  0.00  0.00  0.00 61.49  1.00 178.9  2.91   0.0  1.00  1.00  1.00
 2019 276   107   107  26.0 -26.0 2.097   4.7  0.00  0.00  0.00  0.00 -0.06  0.00  0.00  0.00  0.00 64.95  1.00 190.3  2.93   0.0  1.00  1.00  1.00
 2019 277   108   108  26.7 -26.7 2.121   4.7  0.00  0.00  0.00  0.00 -0.06  0.00  0.00  0.00  0.00 59.47  1.00 184.7  3.11   0.0  1.00  1.00  1.00
 2019 278   109   109  26.9 -26.9 2.143   4.5  0.00  0.00  0.00  0.00 -0.06  0.00  0.00  0.00  0.00 51.77  1.00 163.2  3.15   0.0  1.00  1.00  1.00
 2019 279   110   110  25.7 -25.7 2.166   4.5  0.00  0.00  0.00  0.00 -0.06  0.00  0.00  0.00  0.00 55.72  1.00 164.4  2.95   0.0  1.00  1.00  1.00
 2019 280   111   111  25.6 -25.6 2.190   4.8  0.00  0.00  0.00  0.00 -0.06  0.00  0.00  0.00  0.00 62.86  1.00 171.9  2.74   0.0  1.00  1.00  1.00
 2019 281   112   112  25.8 -25.8 2.214   4.8  0.00  0.00  0.00  0.00 -0.06  0.00  0.00  0.00  0.00 59.13  1.00 172.9  2.92   0.0  1.00  1.00  1.00
 2019 282   113   113  26.9 -26.9 2.238   4.8  0.00  0.00  0.00  0.00 -0.06  0.00  0.00  0.00  0.00 60.64  1.00 168.7  2.78   0.0  1.00  1.00  1.00
 2019 283   114   114  27.0 -27.0 2.260   4.5  0.00  0.00  0.00  0.00 -0.06  0.00  0.00  0.00  0.00 55.97  1.00 167.0  2.98   0.0  1.00  1.00  1.00
 2019 284   115   115  26.6 -26.6 2.282   4.4  0.00  0.00  0.00  0.00 -0.06  0.00  0.00  0.00  0.00 61.09  1.00 190.8  3.12   0.0  1.00  1.00  1.00
 2019 285   116   116  26.8 -26.8 2.305   4.5  0.00  0.00  0.00  0.00 -0.06  0.00  0.00  0.00  0.00 58.54  1.00 188.2  3.21   0.0  1.00  1.00  1.00
 2019 286   117   117  27.0 -27.0 2.327   4.5  0.00  0.00  0.00  0.00 -0.06  0.00  0.00  0.00  0.00 55.88  1.00 176.3  3.16   0.0  1.00  1.00  1.00
 2019 287   118   118  27.3 -27.3 2.349   4.4  0.00  0.00  0.00  0.00 -0.06  0.00  0.00  0.00  0.00 56.62  1.00 187.8  3.32   0.0  1.00  1.00  1.00
 2019 288   119   119  27.8 -27.8 2.371   4.3  0.00  0.00  0.00  0.00 -0.06  0.00  0.00  0.00  0.00 58.69  1.00 179.3  3.05   0.0  1.00  1.00  1.00
 2019 289   120   120  25.5 -25.5 2.392   4.2  0.00  0.00  0.00  0.00 -0.06  0.00  0.00  0.00  0.00 54.06  1.00 180.2  3.33   0.0  1.00  1.00  1.00
 2019 290   121   121  27.3 -27.3 2.416   4.9  0.00  0.00  0.00  0.00 -0.06  0.00  0.00  0.00  0.00 61.00  1.00 175.9  2.88   0.0  1.00  1.00  1.00
 2019 291   122   122  26.2 -26.2 2.438   4.3  0.00  0.00  0.00  0.00 -0.06  0.00  0.00  0.00  0.00 61.73  1.00 191.3  3.10   0.0  1.00  1.00  1.00
 2019 292   123   123  26.6 -26.6 2.461   4.7  0.00  0.00  0.00  0.00 -0.06  0.00  0.00  0.00  0.00 60.29  1.00 183.9  3.05   0.0  1.00  1.00  1.00
 2019 293   124   124  27.1 -27.1 2.484   4.5  0.00  0.00  0.00  0.00 -0.06  0.00  0.00  0.00  0.00 56.60  1.00 176.4  3.12   0.0  1.00  1.00  1.00
 2019 294   125   125  27.0 -27.0 2.506   4.4  0.00  0.00  0.00  0.00 -0.06  0.00  0.00  0.00  0.00 53.84  1.00 181.3  3.37   0.0  1.00  1.00  1.00
 2019 295   126   126  27.3 -27.3 2.528   4.4  0.00  0.00  0.00  0.00 -0.06  0.00  0.00  0.00  0.00 56.67  1.00 191.3  3.38   0.0  1.00  1.00  1.00
 2019 296   127   127  27.2 -27.2 2.550   4.3  0.00  0.00  0.00  0.00 -0.06  0.00  0.00  0.00  0.00 58.64  1.00 191.3  3.26   0.0  1.00  1.00  1.00
 2019 297   128   128  25.8 -25.8 2.572   4.4  0.00  0.00  0.00  0.00 -0.06  0.00  0.00  0.00  0.00 56.97  1.00 184.2  3.23   0.0  1.00  1.00  1.00
 2019 298   129   129  27.8 -27.8 2.595   4.8  0.00  0.00  0.00  0.00 -0.06  0.00  0.00  0.00  0.00 54.48  1.00 181.2  3.33   0.0  1.00  1.00  1.00
 2019 299   130   130  27.3 -27.3 2.617   4.2  0.00  0.00  0.00  0.00 -0.06  0.00  0.00  0.00  0.00 56.60  1.00 191.4  3.38   0.0  1.00  1.00  1.00
 2019 300   131   131  25.8 -25.8 2.638   4.3  0.00  0.00  0.00  0.00 -0.06  0.00  0.00  0.00  0.00 64.96  1.00 191.9  2.95   0.0  1.00  1.00  1.00
 2019 301   132   132  25.7 -25.7 2.662   4.8  0.00  0.00  0.00  0.00 -0.06  0.00  0.00  0.00  0.00 58.93  1.00 186.9  3.17   0.0  1.00  1.00  1.00
 2019 302   133   133  27.5 -27.5 2.686   4.8  0.00  0.00  0.00  0.00 -0.06  0.00  0.00  0.00  0.00 48.52  1.00 175.3  3.61   0.0  1.00  1.00  1.00
 2019 303   134   134  28.1 -28.1 2.708   4.3  0.00  0.00  0.00  0.00 -0.06  0.00  0.00  0.00  0.00 46.15  1.00 167.9  3.64   0.0  1.00  1.00  1.00
 2019 304   135   135  27.1 -27.1 2.728   4.1  0.00  0.00  0.00  0.00 -0.06  0.00  0.00  0.00  0.00 53.56  1.00 191.2  3.57   0.0  1.00  1.00  1.00
 2019 305   136   136  27.6 -27.6 2.750   4.4  0.00  0.00  0.00  0.00 -0.06  0.00  0.00  0.00  0.00 51.18  1.00 182.8  3.57   0.0  1.00  1.00  1.00
 2019 306   137   137  27.0 -27.0 2.771   4.3  0.00  0.00  0.00  0.00 -0.06  0.00  0.00  0.00  0.00 53.49  1.00 191.2  3.57   0.0  1.00  1.00  1.00
 2019 307   138   138  27.6 -27.6 2.794   4.4  0.00  0.00  0.00  0.00 -0.06  0.00  0.00  0.00  0.00 47.63  1.00 165.5  3.47   0.0  1.00  1.00  1.00
 2019 308   139   139  27.7 -27.7 2.815   4.2  0.00  0.00  0.00  0.00 -0.06  0.00  0.00  0.00  0.00 45.14  1.00 156.4  3.46   0.0  1.00  1.00  1.00
 2019 309   140   140  28.4 -28.4 2.836   4.2  0.00  0.00  0.00  0.00 -0.06  0.00  0.00  0.00  0.00 41.84  1.00 151.7  3.63   0.0  1.00  1.00  1.00
 2019 310   141   141  28.2 -28.2 2.856   4.0  0.00  0.00  0.00  0.00 -0.06  0.00  0.00  0.00  0.00 41.58  1.00 147.2  3.54   0.0  1.00  1.00  1.00
 2019 311   142   142  28.0 -28.0 2.877   4.1  0.00  0.00  0.00  0.00 -0.06  0.00  0.00  0.00  0.00 40.39  1.00 142.6  3.53   0.0  1.00  1.00  1.00
 2019 312   143   143  28.4 -28.4 2.897   4.2  0.00  0.00  0.00  0.00 -0.06  0.00  0.00  0.00  0.00 37.79  1.00 137.8  3.65   0.0  1.00  1.00  1.00
 2019 313   144   144  28.5 -28.5 2.918   4.0  0.00  0.00  0.00  0.00 -0.06  0.00  0.00  0.00  0.00 37.21  1.00 133.3  3.58   0.0  1.00  1.00  1.00
 2019 314   145   145  27.5 -27.5 2.937   4.0  0.00  0.00  0.00  0.00 -0.06  0.00  0.00  0.03  0.00 42.56  1.00 141.3  3.32   0.0  1.00  1.00  1.00
 2019 315   146   146  27.8 -27.8 2.958   4.3  0.00  0.00  0.00  0.00 -0.06  0.00  0.00  0.00  0.00 42.43  1.00 138.8  3.27   0.0  1.00  1.00  1.00
 2019 316   147   147  26.8 -26.8 2.979   4.2  0.00  0.00  0.00  0.00 -0.06  0.00  0.00  0.00  0.00 46.72  1.00 134.9  2.89   0.0  1.00  1.00  1.00
 2019 317   148   148  27.5 -27.5 3.006   5.3  0.00  0.00  0.00  0.00 -0.06  0.00  0.00  0.00  0.00 38.11  1.00 130.9  3.44   0.0  1.00  1.00  1.00
 2019 318   149   149  27.8 -27.8 3.028   4.3  0.00  0.00  0.00  0.00 -0.06  0.00  0.00  0.00  0.00 36.66  1.00 126.3  3.45   0.0  1.00  1.00  1.00
 2019 319   150   150  27.4 -27.4 3.048   4.2  0.00  0.00  0.00  0.00 -0.06  0.00  0.00  0.04  0.00 34.73  1.00 121.6  3.50   0.0  1.00  1.00  1.00
 2019 320   151   151  27.9 -27.9 3.067   4.3  0.00  0.00  0.00  0.00 -0.06  0.00  0.00  0.11  0.00 34.47  1.00 117.0  3.40   0.0  1.00  1.00  1.00
 2019 321   152   152  28.3 -28.3 3.084   4.2  0.00  0.00  0.00  0.00 -0.06  0.00  0.00  0.17  0.00 32.74  1.00 112.6  3.44   0.0  1.00  1.00  1.00
 2019 322   153   153  28.5 -28.5 3.099   4.1  0.00  0.00  0.00  0.00 -0.06  0.00  0.00  0.23  0.00 38.47  1.00 134.2  3.49   0.0  1.00  1.00  1.00
 2019 323   154   154  28.6 -28.6 3.119   4.0  0.00  0.00  0.00  0.00 -0.06  0.00  0.00  0.00  0.00 38.40  1.00 129.4  3.37   0.0  1.00  1.00  1.00
 2019 324   155   155  28.0 -28.0 3.139   4.0  0.00  0.00  0.00  0.00 -0.06  0.00  0.00  0.00  0.00 41.17  1.00 126.9  3.08   0.0  1.00  1.00  1.00
 2019 325   156   156  27.3 -27.3 3.160   4.2  0.00  0.00  0.00  0.00 -0.06  0.00  0.00  0.00  0.00 41.74  1.00 126.8  3.04   0.0  1.00  1.00  1.00
 2019 326   157   157  28.4 -28.4 3.182   4.3  0.00  0.00  0.00  0.00 -0.06  0.00  0.00  0.00  0.00 39.41  1.00 122.4  3.11   0.0  1.00  1.00  1.00
 2019 327   158   158  28.3 -28.3 3.202   4.0  0.00  0.00  0.00  0.00 -0.06  0.00  0.00  0.00  0.00 35.96  1.00 117.8  3.28   0.0  1.00  1.00  1.00
 2019 328   159   159  28.2 -28.2 3.222   4.0  0.00  0.00  0.00  0.00 -0.06  0.00  0.00  0.02  0.00 35.96  1.00 113.4  3.15   0.0  1.00  1.00  1.00
 2019 329   160   160  28.4 -28.4 3.240   4.1  0.00  0.00  0.00  0.00 -0.06  0.00  0.00  0.09  0.00 33.52  1.00 108.9  3.25   0.0  1.00  1.00  1.00
 2019 330   161   161  28.2 -28.2 3.258   4.0  0.00  0.00  0.00  0.00 -0.06  0.00  0.00  0.15  0.00 32.02  1.00 104.6  3.27   0.0  1.00  1.00  1.00
 2019 331   162   162  28.6 -28.6 3.273   4.1  0.00  0.00  0.00  0.00 -0.06  0.00  0.00  0.22  0.00 28.58  1.00 100.1  3.50   0.0  1.00  1.00  1.00
 2019 332   163   163  27.8 -27.8 3.288   4.0  0.00  0.00  0.00  0.00 -0.06  0.00  0.00  0.28  0.00 27.51  1.00  95.7  3.48   0.0  1.00  1.00  1.00
 2019 333   164   164  28.1 -28.1 3.302   4.2  0.00  0.00  0.01  0.00 -0.06  0.00  0.00  0.34  0.00 35.33  1.00 118.2  3.35   0.0  1.00  1.00  1.00
 2019 334   165   165  28.0 -28.0 3.322   4.1  0.00  0.00  0.00  0.00 -0.06  0.00  0.00  0.00  0.00 32.39  1.00 113.3  3.50   0.0  1.00  1.00  1.00
 2019 335   166   166  27.2 -27.2 3.343   4.1  0.00  0.00  0.00  0.00 -0.06  0.00  0.00  0.00  0.00 35.12  1.00 109.0  3.10   0.0  1.00  1.00  1.00
 2019 336   167   167  27.8 -27.8 3.363   4.4  0.00  0.00  0.00  0.00 -0.06  0.00  0.00  0.05  0.00 32.44  1.00 104.7  3.23   0.0  1.00  1.00  1.00
 2019 337   168   168  27.6 -27.6 3.382   4.2  0.00  0.00  0.00  0.00 -0.06  0.00  0.00  0.12  0.00 31.32  1.00 100.3  3.20   0.0  1.00  1.00  1.00
 2019 338   169   169  27.7 -27.7 3.399   4.3  0.00  0.00  0.00  0.00 -0.06  0.00  0.00  0.18  0.00 28.04  1.00  95.8  3.41   0.0  1.00  1.00  1.00
 2019 339   170   170  27.5 -27.5 3.415   4.2  0.00  0.00  0.00  0.00 -0.06  0.00  0.00  0.25  0.00 27.74  1.00  91.5  3.30   0.0  1.00  1.00  1.00
 2019 340   171   171  27.8 -27.8 3.430   4.3  0.00  0.00  0.00  0.00 -0.06  0.00  0.00  0.31  0.00 28.82  1.00  87.6  3.04   0.0  1.00  1.00  1.00
 2019 341   172   172  27.6 -27.6 3.443   4.2  0.00  0.00  0.05  0.00 -0.06  0.00  0.00  0.37  0.00 32.82  1.00 109.5  3.34   0.0  1.00  1.00  1.00
 2019 342   173   173  27.7 -27.7 3.464   4.3  0.00  0.00  0.00  0.00 -0.06  0.00  0.00  0.03  0.00 32.58  1.00 104.9  3.22   0.0  1.00  1.00  1.00
 2019 343   174   174  28.2 -28.2 3.485   4.2  0.00  0.00  0.00  0.00 -0.06  0.00  0.00  0.02  0.00 29.00  1.00 100.1  3.45   0.0  1.00  1.00  1.00
 2019 344   175   175  27.4 -27.4 3.503   4.1  0.00  0.00  0.00  0.00 -0.06  0.00  0.00  0.10  0.00 29.14  1.00  95.5  3.28   0.0  1.00  1.00  1.00
 2019 345   176   176  26.7 -26.7 3.521   4.3  0.00  0.00  0.00  0.00 -0.06  0.00  0.00  0.17  0.00 26.48  1.00  90.9  3.43   0.0  1.00  1.00  1.00
 2019 346   177   177  26.9 -26.9 3.538   4.5  0.00  0.00  0.00  0.00 -0.06  0.00  0.00  0.24  0.00 25.86  1.00  86.5  3.35   0.0  1.00  1.00  1.00
 2019 347   178   178  27.6 -27.6 3.554   4.5  0.00  0.00  0.00  0.00 -0.06  0.00  0.00  0.30  0.00 23.04  1.00  82.0  3.56   0.0  1.00  1.00  1.00
 2019 348   179   179  26.9 -26.9 3.567   4.2  0.00  0.00  0.06  0.00 -0.06  0.00  0.00  0.37  0.00 24.14  1.00  78.1  3.23   0.0  1.00  1.00  1.00
 2019 349   180   180  26.7 -26.7 3.580   4.5  0.00  0.00  0.14  0.00 -0.06  0.00  0.00  0.43  0.00 30.21  1.00 101.5  3.36   0.0  1.00  1.00  1.00
 2019 350   181   181  27.2 -27.2 3.601   4.5  0.00  0.00  0.00  0.00 -0.06  0.00  0.00  0.07  0.00 28.81  1.00  96.7  3.36   0.0  1.00  1.00  1.00
 2019 351   182   182  27.5 -27.5 3.622   4.4  0.00  0.00  0.00  0.00 -0.06  0.00  0.00  0.06  0.00 28.55  1.00  92.1  3.23   0.0  1.00  1.00  1.00
 2019 352   183   183  28.0 -28.0 3.640   4.3  0.00  0.00  0.00  0.00 -0.06  0.00  0.00  0.14  0.00 30.57  1.00  87.9  2.88   0.0  1.00  1.00  1.00
 2019 353   184   184  27.6 -27.6 3.657   4.2  0.00  0.00  0.00  0.00 -0.06  0.00  0.00  0.20  0.00 28.29  1.00  83.8  2.96   0.0  1.00  1.00  1.00
 2019 354   185   185  27.2 -27.2 3.672   4.3  0.00  0.00  0.00  0.00 -0.06  0.00  0.00  0.27  0.00 25.10  1.00  79.6  3.17   0.0  1.00  1.00  1.00
 2019 355   186   186  26.5 -26.5 3.687   4.4  0.00  0.00  0.00  0.00 -0.06  0.00  0.00  0.34  0.00 24.08  1.00  75.7  3.14   0.0  1.00  1.00  1.00
 2019 356   187   187  25.5 -25.5 3.700   4.6  0.00  0.00  0.09  0.00 -0.06  0.00  0.00  0.39  0.00 21.77  1.00  71.5  3.29   0.0  1.00  1.00  1.00
 2019 357   188   188  26.4 -26.4 3.713   4.8  0.00  0.00  0.19  0.00 -0.06  0.00  0.00  0.46  0.00 29.85  1.00  95.7  3.21   0.0  1.00  1.00  1.00
 2019 358   189   189  26.7 -26.7 3.734   4.6  0.00  0.00  0.00  0.00 -0.06  0.00  0.00  0.10  0.00 27.84  1.00  90.8  3.26   0.0  1.00  1.00  1.00
 2019 359   190   190  26.6 -26.6 3.755   4.5  0.00  0.00  0.00  0.00 -0.06  0.00  0.00  0.09  0.00 26.82  1.00  86.1  3.21   0.0  1.00  1.00  1.00
 2019 360   191   191  26.9 -26.9 3.774   4.5  0.00  0.00  0.00  0.00 -0.06  0.00  0.00  0.17  0.00 24.40  1.00  81.5  3.34   0.0  1.00  1.00  1.00
 2019 361   192   192  26.7 -26.7 3.790   4.5  0.00  0.00  0.00  0.00 -0.06  0.00  0.00  0.25  0.00 25.61  1.00  77.3  3.02   0.0  1.00  1.00  1.00
 2019 362   193   193  26.5 -26.5 3.806   4.5  0.00  0.00  0.00  0.00 -0.06  0.00  0.00  0.32  0.00 25.35  1.00  73.4  2.90   0.0  1.00  1.00  1.00
 2019 363   194   194  25.7 -25.7 3.820   4.6  0.00  0.00  0.07  0.00 -0.06  0.00  0.00  0.38  0.00 22.79  1.00  69.6  3.06   0.0  1.00  1.00  1.00
 2019 364   195   195  26.1 -26.1 3.833   4.8  0.00  0.00  0.16  0.00 -0.06  0.00  0.00  0.44  0.00 29.72  1.00  92.6  3.12   0.0  1.00  1.00  1.00
 2019 365   196   196  26.4 -26.4 3.854   4.7  0.00  0.00  0.00  0.00 -0.06  0.00  0.00  0.10  0.00 32.54  1.00  88.4  2.72   0.0  1.00  1.00  1.00
 2020   1   197   197  26.2 -26.2 3.875   4.6  0.00  0.00  0.00  0.00 -0.06  0.00  0.00  0.10  0.00 27.78  1.00  84.1  3.03   0.0  1.00  1.00  1.00
 2020   2   198   198  25.2 -25.2 3.895   4.7  0.00  0.00  0.00  0.00 -0.06  0.00  0.00  0.17  0.00 28.24  1.00  79.9  2.83   0.0  1.00  1.00  1.00
 2020   3   199   199  23.6 -23.6 3.913   5.0  0.00  0.09  0.00  0.00 -0.06  0.00  0.03  0.24  0.00 26.01  1.00  75.8  2.92   0.0  1.00  1.00  1.00
 2020   4   200   200  25.0 -25.0 3.931   5.0  0.00  0.00  0.00  0.00 -0.06  0.00  0.00  0.31  0.00 28.28  1.00  72.2  2.55   0.0  1.00  1.00  1.00
 2020   5   201   201  25.0 -25.0 3.946   5.0  0.00  0.00  0.05  0.00 -0.06  0.00  0.00  0.37  0.00 26.50  1.00  68.9  2.60   0.0  1.00  1.00  1.00
 2020   6   202   202  26.2 -26.2 3.961   5.0  0.00  0.00  0.13  0.00 -0.06  0.00  0.00  0.42  0.00 23.23  1.00  65.2  2.81   0.0  1.00  1.00  1.00
 2020   7   203   203  27.6 -27.6 3.973   4.7  0.00  0.00  0.22  0.00 -0.06  0.00  0.00  0.48  0.00 29.72  1.00  89.3  3.00   0.0  1.00  1.00  1.00
 2020   8   204   204  28.1 -28.1 3.992   4.3  0.00  0.00  0.00  0.00 -0.06  0.00  0.00  0.12  0.00 29.71  1.00  84.7  2.85   0.0  1.00  1.00  1.00
 2020   9   205   205  28.3 -28.3 4.039  10.8  0.00  0.00  0.00  0.00 -0.06  0.00  0.00  0.12  0.00 31.72  1.00  80.7  2.54   0.0  1.00  1.00  1.00
 2020  10   206   206  28.0 -28.0 4.056   4.1  0.00  0.00  0.00  0.00 -0.06  0.00  0.00  0.19  0.00 26.28  1.00  76.8  2.92   0.0  1.00  1.00  1.00
 2020  11   207   207  27.8 -27.8 4.071   4.1  0.00  0.00  0.00  0.00 -0.06  0.00  0.00  0.26  0.00 25.52  1.00  72.8  2.85   0.0  1.00  1.00  1.00
 2020  12   208   208  28.5 -28.5 4.085   4.2  0.00  0.00  0.00  0.00 -0.06  0.00  0.00  0.32  0.00 25.11  1.00  68.9  2.75   0.0  1.00  1.00  1.00
 2020  13   209   209  29.8 -29.8 4.097   4.0  0.00  0.00  0.08  0.00 -0.06  0.00  0.00  0.39  0.00 22.70  1.00  65.1  2.87   0.0  1.00  1.00  1.00
 2020  14   210   210  29.0 -29.0 4.107   3.6  0.00  0.00  0.17  0.00 -0.06  0.00  0.00  0.45  0.00 30.64  1.00  86.4  2.82   0.0  1.00  1.00  1.00
 2020  15   211   211  29.1 -29.1 4.124   3.9  0.00  0.00  0.00  0.00 -0.06  0.00  0.00  0.14  0.00 28.10  1.00  81.6  2.90   0.0  1.00  1.00  1.00
 2020  16   212   212  27.5 -27.5 4.140   3.8  0.00  0.00  0.00  0.00 -0.06  0.00  0.00  0.15  0.00 32.94  1.00  77.8  2.36   0.0  1.00  1.00  1.00
 2020  17   213   213  26.6 -26.6 4.157   4.3  0.00  0.00  0.00  0.00 -0.06  0.00  0.00  0.21  0.00 28.28  1.00  74.8  2.64   0.0  1.00  1.00  1.00
 2020  18   214   214  26.8 -26.8 4.174   4.5  0.00  0.00  0.00  0.00 -0.06  0.00  0.00  0.26  0.00 30.63  1.00  74.4  2.43   0.0  1.00  1.00  1.00
 2020  19   215   215  25.8 -25.8 4.191   4.5  0.00  0.00  0.00  0.00 -0.06  0.00  0.00  0.26  0.00 27.90  1.00  70.5  2.53   0.0  1.00  1.00  1.00
 2020  20   216   216  26.7 -26.7 4.207   4.8  0.00  0.00  0.00  0.00 -0.06  0.00  0.00  0.33  0.00 26.08  1.00  66.7  2.56   0.0  1.00  1.00  1.00
 2020  21   217   217  28.1 -28.1 4.220   4.5  0.00  0.00  0.09  0.00 -0.06  0.00  0.00  0.39  0.00 21.84  1.00  63.0  2.88   0.0  1.00  1.00  1.00
 2020  22   218   218  28.2 -28.2 4.232   4.1  0.00  0.00  0.18  0.00 -0.06  0.00  0.00  0.45  0.00 20.85  1.00  59.2  2.84   0.0  1.00  1.00  1.00
 2020  23   219   219  27.8 -27.8 4.242   4.1  0.00  0.00  0.27  0.00 -0.06  0.00  0.00  0.52  0.00 30.22  1.00  84.4  2.79   0.0  1.00  1.00  1.00
 2020  24   220   220  27.5 -27.5 4.259   4.2  0.00  0.00  0.00  0.00 -0.06  0.00  0.00  0.16  0.00 27.10  1.00  79.4  2.93   0.0  1.00  1.00  1.00
 2020  25   221   221  26.8 -26.8 4.277   4.3  0.00  0.00  0.00  0.00 -0.06  0.00  0.00  0.15  0.00 24.34  1.00  74.9  3.08   0.0  1.00  1.00  1.00
 2020  26   222   222  25.3 -25.3 4.294   4.5  0.00  0.00  0.00  0.00 -0.06  0.00  0.00  0.23  0.00 22.34  1.00  70.5  3.15   0.0  1.00  1.00  1.00
 2020  27   223   223  26.0 -26.0 4.312   4.9  0.00  0.00  0.00  0.00 -0.06  0.00  0.00  0.31  0.00 24.91  1.00  66.7  2.68   0.0  1.00  1.00  1.00
 2020  28   224   224  26.5 -26.5 4.326   4.7  0.00  0.00  0.06  0.00 -0.06  0.00  0.00  0.37  0.00 22.50  1.00  62.9  2.79   0.0  1.00  1.00  1.00
 2020  29   225   225  27.1 -27.1 4.339   4.6  0.00  0.00  0.15  0.00 -0.06  0.00  0.00  0.43  0.00 20.75  1.00  59.1  2.85   0.0  1.00  1.00  1.00
 2020  30   226   226  27.2 -27.2 4.350   4.4  0.00  0.00  0.24  0.00 -0.06  0.00  0.00  0.50  0.00 27.95  1.00  83.3  2.98   0.0  1.00  1.00  1.00
 2020  31   227   227  27.4 -27.4 4.369   4.4  0.00  0.00  0.00  0.00 -0.06  0.00  0.00  0.15  0.00 30.46  1.00  79.5  2.61   0.0  1.00  1.00  1.00
 2020  32   228   228  27.0 -27.0 4.388   4.3  0.00  0.00  0.00  0.00 -0.06  0.00  0.00  0.15  0.00 25.18  1.00  74.5  2.96   0.0  1.00  1.00  1.00
 2020  33   229   229  26.5 -26.5 4.405   4.4  0.00  0.00  0.00  0.00 -0.06  0.00  0.00  0.21  0.00 27.46  1.00  70.5  2.57   0.0  1.00  1.00  1.00
 2020  34   230   230  26.8 -26.8 4.422   4.6  0.00  0.00  0.00  0.00 -0.06  0.00  0.00  0.28  0.00 26.18  1.00  66.9  2.55   0.0  1.00  1.00  1.00
 2020  35   231   231  26.9 -26.9 4.437   4.5  0.00  0.00  0.00  0.00 -0.06  0.00  0.00  0.34  0.00 25.35  1.00  63.5  2.50   0.0  1.00  1.00  1.00
 2020  36   232   232  27.1 -27.1 4.450   4.5  0.00  0.00  0.09  0.00 -0.06  0.00  0.00  0.39  0.00 26.83  1.00  60.2  2.24   0.0  1.00  1.00  1.00
 2020  37   233   233  27.5 -27.5 4.462   4.4  0.00  0.00  0.17  0.00 -0.06  0.00  0.00  0.45  0.00 23.67  1.00  56.9  2.40   0.0  1.00  1.00  1.00
 2020  38   234   234  27.2 -27.2 4.473   4.3  0.00  0.00  0.26  0.00 -0.06  0.00  0.00  0.50  0.00 29.75  1.00  81.5  2.74   0.0  1.00  1.00  1.00
 2020  39   235   235  28.4 -28.4 4.491   4.4  0.00  0.00  0.00  0.00 -0.06  0.00  0.00  0.15  0.00 25.88  1.00  76.6  2.96   0.0  1.00  1.00  1.00
 2020  40   236   236  28.4 -28.4 4.508   4.0  0.00  0.00  0.00  0.00 -0.06  0.00  0.00  0.16  0.00 33.34  1.00  72.5  2.18   0.0  1.00  1.00  1.00
 2020  41   237   237  28.4 -28.4 4.524   4.0  0.00  0.00  0.00  0.00 -0.06  0.00  0.00  0.21  0.00 27.33  1.00  68.6  2.51   0.0  1.00  1.00  1.00
 2020  42   238   238  28.9 -28.9 4.538   4.0  0.00  0.00  0.00  0.00 -0.06  0.00  0.00  0.28  0.00 27.42  1.00  66.6  2.43   0.0  1.00  1.00  1.00
 2020  43   239   239  28.0 -28.0 4.552   3.9  0.00  0.00  0.00  0.00 -0.06  0.00  0.00  0.31  0.00 28.12  1.00  63.1  2.24   0.0  1.00  1.00  1.00
 2020  44   240   240  27.8 -27.8 4.565   4.2  0.00  0.00  0.06  0.00 -0.06  0.00  0.00  0.37  0.00 25.40  1.00  59.7  2.35   0.0  1.00  1.00  1.00
 2020  45   241   241  28.5 -28.5 4.577   4.2  0.00  0.00  0.15  0.00 -0.06  0.00  0.00  0.43  0.00 20.11  1.00  55.9  2.78   0.0  1.00  1.00  1.00
 2020  46   242   242  28.4 -28.4 4.587   4.0  0.00  0.00  0.24  0.00 -0.06  0.00  0.00  0.49  0.00 19.80  1.00  52.4  2.65   0.0  1.00  1.00  1.00
 2020  47   243   243  28.8 -28.8 4.596   4.0  0.00  0.00  0.33  0.00 -0.06  0.00  0.00  0.55  0.00 32.06  1.00  77.2  2.41   0.0  1.00  1.00  1.00
 2020  48   244   244  29.3 -29.3 4.612   3.9  0.00  0.00  0.00  0.00 -0.06  0.00  0.00  0.19  0.00 29.96  1.00  72.4  2.42   0.0  1.00  1.00  1.00
 2020  49   245   245  29.1 -29.1 4.627   3.8  0.00  0.00  0.00  0.00 -0.06  0.00  0.00  0.19  0.00 30.22  1.00  68.6  2.27   0.0  1.00  1.00  1.00
 2020  50   246   246  29.2 -29.2 4.641   3.8  0.00  0.00  0.00  0.00 -0.06  0.00  0.00  0.26  0.00 26.18  1.00  64.9  2.48   0.0  1.00  1.00  1.00
 2020  51   247   247  29.9 -29.9 4.654   3.8  0.00  0.00  0.00  0.00 -0.06  0.00  0.00  0.32  0.00 25.34  1.00  61.5  2.43   0.0  1.00  1.00  1.00
 2020  52   248   248  30.2 -30.2 4.665   3.6  0.00  0.00  0.07  0.00 -0.06  0.00  0.00  0.38  0.00 25.06  1.00  58.1  2.32   0.0  1.00  1.00  1.00
 2020  53   249   249  31.3 -31.3 4.675   3.5  0.00  0.00  0.15  0.00 -0.06  0.00  0.00  0.43  0.00 20.47  1.00  54.5  2.66   0.0  1.00  1.00  1.00
 2020  54   250   250  31.1 -31.1 4.683   3.2  0.00  0.00  0.24  0.00 -0.06  0.00  0.00  0.49  0.00 19.75  1.00  51.5  2.61   0.0  1.00  1.00  1.00
 2020  55   251   251  30.5 -30.5 4.691   3.3  0.00  0.00  0.31  0.00 -0.06  0.00  0.00  0.54  0.00 31.01  1.00  76.1  2.45   0.0  1.00  1.00  1.00
 2020  56   252   252  29.4 -29.4 4.704   3.4  0.00  0.00  0.00  0.00 -0.06  0.00  0.00  0.19  0.00 32.74  1.00  71.5  2.18   0.0  1.00  1.00  1.00
 2020  57   253   253  29.8 -29.8 4.720   3.8  0.00  0.00  0.00  0.00 -0.06  0.00  0.00  0.19  0.00 31.22  1.00  67.9  2.17   0.0  1.00  1.00  1.00
 2020  58   254   254  30.0 -30.0 4.733   3.6  0.00  0.00  0.00  0.00 -0.06  0.00  0.00  0.25  0.00 27.13  1.00  64.2  2.37   0.0  1.00  1.00  1.00
 2020  59   255   255  30.3 -30.3 4.746   3.6  0.00  0.00  0.00  0.00 -0.06  0.00  0.00  0.32  0.00 23.71  1.00  60.5  2.55   0.0  1.00  1.00  1.00
 2020  60   256   256  32.2 -32.2 4.756   3.5  0.00  0.00  0.07  0.00 -0.06  0.00  0.00  0.38  0.00 20.72  1.00  56.9  2.74   0.0  1.00  1.00  1.00
 2020  61   257   257  30.8 -30.8 4.765   3.0  0.00  0.00  0.16  0.00 -0.06  0.00  0.00  0.44  0.00 23.08  1.00  53.6  2.32   0.0  1.00  1.00  1.00
 2020  62   258   258  30.8 -30.8 4.773   3.3  0.00  0.00  0.24  0.00 -0.06  0.00  0.00  0.49  0.00 23.84  1.00  52.0  2.18   0.0  1.00  1.00  1.00
 2020  63   259   259  30.8 -30.8 4.781   3.4  0.00  0.00  0.27  0.00 -0.06  0.00  0.00  0.52  0.00 31.38  1.00  74.5  2.37   0.0  1.00  1.00  1.00
 2020  64   260   260  30.8 -30.8 4.795   3.3  0.00  0.00  0.00  0.00 -0.06  0.00  0.00  0.20  0.00 25.03  1.00  68.5  2.74   0.0  1.00  1.00  1.00
 2020  65   261   261  31.3 -31.3 4.808   3.3  0.00  0.00  0.00  0.00 -0.06  0.00  0.00  0.22  0.00 24.00  1.00  64.4  2.68   0.0  1.00  1.00  1.00
 2020  66   262   262  30.5 -30.5 4.819   3.2  0.00  0.00  0.00  0.00 -0.06  0.00  0.00  0.29  0.00 27.25  1.00  60.9  2.24   0.0  1.00  1.00  1.00
 2020  67   263   263  30.8 -30.8 4.830   3.4  0.00  0.00  0.02  0.00 -0.06  0.00  0.00  0.35  0.00 23.90  1.00  57.4  2.40   0.0  1.00  1.00  1.00
 2020  68   264   264  30.6 -30.6 4.840   3.3  0.00  0.00  0.11  0.00 -0.06  0.00  0.00  0.41  0.00 23.10  1.00  54.0  2.34   0.0  1.00  1.00  1.00
 2020  69   265   265  31.4 -31.4 4.849   3.4  0.00  0.00  0.20  0.00 -0.06  0.00  0.00  0.47  0.00 18.97  1.00  50.5  2.66   0.0  1.00  1.00  1.00
 2020  70   266   266  30.6 -30.6 4.857   3.2  0.00  0.00  0.29  0.00 -0.06  0.00  0.00  0.53  0.00 29.61  1.00  72.6  2.45   0.0  1.00  1.00  1.00
 2020  71   267   267  31.1 -31.1 4.870   3.4  0.00  0.00  0.00  0.00 -0.06  0.00  0.00  0.20  0.00 30.48  1.00  67.5  2.22   0.0  1.00  1.00  1.00
 2020  72   268   268  30.6 -30.6 4.883   3.3  0.00  0.00  0.00  0.00 -0.06  0.00  0.00  0.22  0.00 31.40  1.00  64.3  2.05   0.0  1.00  1.00  1.00
 2020  73   269   269  29.3 -29.3 4.895   3.4  0.00  0.00  0.00  0.00 -0.06  0.00  0.00  0.27  0.00 30.00  1.00  60.9  2.03   0.0  1.00  1.00  1.00
 2020  74   270   270  28.9 -28.9 4.908   3.8  0.00  0.00  0.00  0.00 -0.06  0.00  0.00  0.33  0.00 30.99  1.00  57.9  1.87   0.0  1.00  1.00  1.00
 2020  75   271   271  29.3 -29.3 4.920   3.9  0.00  0.00  0.07  0.00 -0.06  0.00  0.00  0.38  0.00 25.72  1.00  54.7  2.13   0.0  1.00  1.00  1.00
 2020  76   272   272  30.3 -30.3 4.931   3.8  0.00  0.00  0.15  0.00 -0.06  0.00  0.00  0.44  0.00 24.22  1.00  51.6  2.13   0.0  1.00  1.00  1.00
 2020  77   273   273  30.9 -30.9 4.940   3.5  0.00  0.00  0.23  0.00 -0.06  0.00  0.00  0.49  0.00 20.61  1.00  48.5  2.35   0.0  1.00  1.00  1.00
 2020  78   274   274  31.3 -31.3 4.947   3.3  0.00  0.00  0.31  0.00 -0.06  0.00  0.00  0.54  0.00 32.89  1.00  71.3  2.17   0.0  1.00  1.00  1.00
 2020  79   275   275  31.3 -31.3 4.960   3.2  0.00  0.00  0.00  0.00 -0.06  0.00  0.00  0.21  0.00 29.24  1.00  65.9  2.25   0.0  1.00  1.00  1.00
 2020  80   276   276  30.2 -30.2 4.972   3.2  0.00  0.00  0.00  0.00 -0.06  0.00  0.00  0.22  0.00 28.66  1.00  62.4  2.18   0.0  1.00  1.00  1.00
 2020  81   277   277  31.5 -31.5 4.985   3.5  0.00  0.00  0.00  0.00 -0.06  0.00  0.00  0.28  0.00 26.57  1.00  58.9  2.22   0.0  1.00  1.00  1.00
 2020  82   278   278  30.5 -30.5 4.996   3.4  0.00  0.00  0.02  0.00 -0.06  0.00  0.00  0.35  0.00 28.01  1.00  55.8  1.99   0.0  1.00  1.00  1.00
 2020  83   279   279  30.7 -30.7 5.037  13.7  0.00  0.00  0.10  0.00 -0.06  0.00  0.00  0.40  0.00 32.07  1.00  60.4  1.88   0.0  1.00  1.00  1.00
 2020  84   280   280  28.7 -28.7 5.049   3.4  0.00  0.00  0.00  0.00 -0.06  0.00  0.00  0.31  0.00 31.69  1.00  57.2  1.81   0.0  1.00  1.00  1.00
 2020  85   281   281  29.9 -29.9 5.061   3.9  0.00  0.00  0.03  0.00 -0.06  0.00  0.00  0.35  0.00 31.33  1.00  54.1  1.73   0.0  1.00  1.00  1.00
 2020  86   282   282  30.1 -30.1 5.072   3.6  0.00  0.00  0.11  0.00 -0.06  0.00  0.00  0.41  0.00 27.10  1.00  50.9  1.88   0.0  1.00  1.00  1.00
 2020  87   283   283  31.5 -31.5 5.081   3.5  0.00  0.00  0.19  0.00 -0.06  0.00  0.00  0.46  0.00 23.72  1.00  47.8  2.01   0.0  1.00  1.00  1.00
 2020  88   284   284  31.3 -31.3 5.089   3.2  0.00  0.00  0.28  0.00 -0.06  0.00  0.00  0.52  0.00 23.07  1.00  44.8  1.94   0.0  1.00  1.00  1.00
 2020  89   285   285  31.7 -31.7 5.096   3.2  0.00  0.00  0.35  0.00 -0.06  0.00  0.00  0.57  0.00 36.11  1.00  69.0  1.91   0.0  1.00  1.00  1.00
 2020  90   286   286  31.8 -31.8 5.108   3.1  0.00  0.00  0.00  0.00 -0.06  0.00  0.00  0.22  0.00 34.56  1.00  64.0  1.85   0.0  1.00  1.00  1.00
 2020  91   287   287  30.8 -30.8 5.120   3.1  0.00  0.00  0.00  0.00 -0.06  0.00  0.00  0.22  0.00 47.96  1.00  81.2  1.69   0.0  1.00  1.00  1.00
 2020  92   288   288  30.0 -30.0 5.135   3.3  0.00  0.00  0.00  0.00 -0.06  0.00  0.00  0.11  0.00 47.69  1.00  76.8  1.61   0.0  1.00  1.00  1.00
 2020  93   289   289  30.6 -30.6 5.151   3.6  0.00  0.00  0.00  0.00 -0.06  0.00  0.00  0.09  0.00 35.83  1.00  71.3  1.99   0.0  1.00  1.00  1.00
 2020  94   290   290  31.2 -31.2 5.165   3.4  0.00  0.00  0.00  0.00 -0.06  0.00  0.00  0.16  0.00 39.00  1.00  68.2  1.75   0.0  1.00  1.00  1.00
 2020  95   291   291  28.9 -28.9 5.178   3.2  0.00  0.00  0.00  0.00 -0.06  0.00  0.00  0.22  0.00 39.88  1.00  65.3  1.64   0.0  1.00  1.00  1.00
 2020  96   292   292  30.6 -30.6 5.192   3.9  0.00  0.00  0.00  0.00 -0.06  0.00  0.00  0.26  0.00 32.28  1.00  62.3  1.93   0.0  1.00  1.00  1.00
 2020  97   293   293  30.7 -30.7 5.204   3.4  0.00  0.00  0.00  0.00 -0.06  0.00  0.00  0.31  0.00 36.01  1.00  61.7  1.71   0.0  1.00  1.00  1.00
 2020  98   294   294  30.8 -30.8 5.215   3.4  0.00  0.00  0.00  0.00 -0.06  0.00  0.00  0.32  0.00 29.73  1.00  58.6  1.97   0.0  1.00  1.00  1.00
 2020  99   295   295  29.6 -29.6 5.226   3.3  0.00  0.00  0.05  0.00 -0.06  0.00  0.00  0.37  0.00 34.61  1.00  56.0  1.62   0.0  1.00  1.00  1.00
 2020 100   296   296  29.5 -29.5 5.237   3.7  0.00  0.00  0.12  0.00 -0.06  0.00  0.00  0.41  0.00 34.12  1.00  53.5  1.57   0.0  1.00  1.00  1.00
 2020 101   297   297  30.4 -30.4 5.247   3.7  0.00  0.00  0.18  0.00 -0.06  0.00  0.00  0.45  0.00 42.83  1.00  75.7  1.77   0.0  1.00  1.00  1.00
 2020 102   298   298  28.5 -28.5 5.262   3.5  0.00  0.00  0.00  0.00 -0.06  0.00  0.00  0.13  0.00 46.47  1.00  72.9  1.57   0.0  1.00  1.00  1.00
 2020 103   299   299  30.7 -30.7 5.279   4.0  0.00  0.00  0.00  0.00 -0.06  0.00  0.00  0.12  0.00 33.81  1.00  67.7  2.00   0.0  1.00  1.00  1.00
 2020 104   300   300  31.5 -31.5 5.293   3.4  0.00  0.00  0.00  0.00 -0.06  0.00  0.00  0.17  0.00 34.84  1.00  64.4  1.85   0.0  1.00  1.00  1.00
 2020 105   301   301  31.9 -31.9 5.305   3.1  0.00  0.00  0.00  0.00 -0.06  0.00  0.00  0.23  0.00 30.43  1.00  61.1  2.01   0.0  1.00  1.00  1.00
 2020 106   302   302  31.9 -31.9 5.316   3.0  0.00  0.00  0.00  0.00 -0.06  0.00  0.00  0.28  0.00 32.57  1.00  58.2  1.79   0.0  1.00  1.00  1.00
 2020 107   303   303  31.5 -31.5 5.326   3.0  0.00  0.00  0.00  0.00 -0.06  0.00  0.00  0.33  0.00 31.31  1.00  55.3  1.77   0.0  1.00  1.00  1.00
 2020 108   304   304  30.9 -30.9 5.336   3.1  0.00  0.00  0.07  0.00 -0.06  0.00  0.00  0.38  0.00 29.44  1.00  52.7  1.79   0.0  1.00  1.00  1.00
 2020 109   305   305  31.0 -31.0 5.346   3.3  0.00  0.00  0.13  0.00 -0.06  0.00  0.00  0.42  0.00 34.49  1.00  50.5  1.46   0.0  1.00  1.00  1.00
 2020 110   306   306  30.0 -30.0 5.355   3.3  0.00  0.00  0.19  0.00 -0.06  0.00  0.00  0.46  0.00 30.94  1.00  48.7  1.58   0.0  1.00  1.00  1.00
 2020 111   307   307  30.0 -30.0 5.364   3.6  0.00  0.00  0.23  0.00 -0.06  0.00  0.00  0.49  0.00 29.52  1.00  46.9  1.59   0.0  1.00  1.00  1.00
 2020 112   308   308  31.3 -31.3 5.372   3.6  0.00  0.00  0.27  0.00 -0.06  0.00  0.00  0.51  0.00 39.62  1.00  69.9  1.76   0.0  1.00  1.00  1.00
 2020 113   309   309  30.7 -30.7 5.386   3.2  0.00  0.00  0.00  0.00 -0.06  0.00  0.00  0.18  0.00 41.18  1.00  65.5  1.59   0.0  1.00  1.00  1.00
 2020 114   310   310  30.1 -30.1 5.400   3.4  0.00  0.00  0.00  0.00 -0.06  0.00  0.00  0.17  0.00 37.62  1.00  62.7  1.67   0.0  1.00  1.00  1.00
 2020 115   311   311  30.4 -30.4 5.413   3.5  0.00  0.00  0.00  0.00 -0.06  0.00  0.00  0.22  0.00 36.05  1.00  59.7  1.66   0.0  1.00  1.00  1.00
 2020 116   312   312  30.5 -30.5 5.426   3.5  0.00  0.00  0.00  0.00 -0.06  0.00  0.00  0.27  0.00 39.69  1.00  62.6  1.58   0.0  1.00  1.00  1.00
 2020 117   313   313  29.8 -29.8 5.440   3.4  0.00  0.00  0.00  0.00 -0.06  0.00  0.00  0.21  0.00 38.73  1.00  63.0  1.63   0.0  1.00  1.00  1.00
 2020 118   314   314  29.5 -29.5 5.454   3.6  0.00  0.00  0.00  0.00 -0.06  0.00  0.00  0.21  0.00 39.99  1.00  59.3  1.48   0.0  1.00  1.00  1.00
 2020 119   315   315  30.4 -30.4 5.468   3.7  0.00  0.00  0.00  0.00 -0.06  0.00  0.00  0.25  0.00 32.88  1.00  56.3  1.71   0.0  1.00  1.00  1.00
 2020 120   316   316  31.6 -31.6 5.480   3.5  0.00  0.00  0.00  0.00 -0.06  0.00  0.00  0.30  0.00 33.52  1.00  57.8  1.72   0.0  1.00  1.00  1.00
 2020 121   317   317  29.9 -29.9 5.492   3.1  0.00  0.00  0.00  0.00 -0.06  0.00  0.00  0.27  0.00 41.99  1.00  66.5  1.58   0.0  1.00  1.00  1.00
 2020 122   318   318  29.9 -29.9 5.506   3.6  0.00  0.00  0.00  0.00 -0.06  0.00  0.00  0.19  0.00 42.53  1.00  71.5  1.68   0.0  1.00  1.00  1.00
 2020 123   319   319  29.8 -29.8 5.522   3.6  0.00  0.00  0.00  0.00 -0.06  0.00  0.00  0.14  0.00 40.90  1.00  67.2  1.64   0.0  1.00  1.00  1.00
 2020 124   320   320  28.6 -28.6 5.538   3.6  0.00  0.00  0.00  0.00 -0.06  0.00  0.00  0.12  0.00 44.23  1.00  68.8  1.56   0.0  1.00  1.00  1.00
 2020 125   321   321  29.0 -29.0 5.555   4.0  0.00  0.00  0.00  0.00 -0.06  0.00  0.00  0.11  0.00 40.04  1.00  67.9  1.70   0.0  1.00  1.00  1.00
 2020 126   322   322  30.1 -30.1 5.573   3.9  0.00  0.00  0.00  0.00 -0.06  0.00  0.00  0.11  0.00 36.85  1.00  63.4  1.72   0.0  1.00  1.00  1.00
 2020 127   323   323  30.6 -30.6 5.587   3.5  0.00  0.00  0.00  0.00 -0.06  0.00  0.00  0.16  0.00 34.52  1.00  60.2  1.74   0.0  1.00  1.00  1.00
 2020 128   324   324  29.9 -29.9 5.601   3.4  0.00  0.00  0.00  0.00 -0.06  0.00  0.00  0.21  0.00 37.20  1.00  57.4  1.54   0.0  1.00  1.00  1.00
 2020 129   325   325  29.3 -29.3 5.614   3.6  0.00  0.00  0.00  0.00 -0.06  0.00  0.00  0.26  0.00 37.87  1.00  54.8  1.45   0.0  1.00  1.00  1.00
 2020 130   326   326  28.5 -28.5 5.627   3.8  0.00  0.00  0.00  0.00 -0.06  0.00  0.00  0.31  0.00 33.03  1.00  58.8  1.78   0.0  1.00  1.00  1.00
 2020 131   327   327  29.5 -29.5 5.643   4.0  0.00  0.00  0.00  0.00 -0.06  0.00  0.00  0.22  0.00 38.21  1.00  60.2  1.58   0.0  1.00  1.00  1.00
 2020 132   328   328  29.1 -29.1 5.657   3.7  0.00  0.00  0.00  0.00 -0.06  0.00  0.00  0.20  0.00 36.20  1.00  56.9  1.57   0.0  1.00  1.00  1.00
 2020 133   329   329  29.4 -29.4 5.672   3.8  0.00  0.00  0.00  0.00 -0.06  0.00  0.00  0.23  0.00 34.10  1.00  53.8  1.58   0.0  1.00  1.00  1.00
 2020 134   330   330  28.5 -28.5 5.686   3.7  0.00  0.00  0.00  0.00 -0.06  0.00  0.00  0.28  0.00 32.59  1.00  52.6  1.61   0.0  1.00  1.00  1.00
 2020 135   331   331  29.8 -29.8 5.700   4.0  0.00  0.00  0.00  0.00 -0.06  0.00  0.00  0.30  0.00 29.09  1.00  49.5  1.70   0.0  1.00  1.00  1.00
 2020 136   332   332  29.6 -29.6 5.711   3.6  0.00  0.00  0.03  0.00 -0.06  0.00  0.00  0.36  0.00 36.37  1.00  58.3  1.60   0.0  1.00  1.00  1.00
 2020 137   333   333  30.0 -30.0 5.726   3.7  0.00  0.00  0.00  0.00 -0.06  0.00  0.00  0.21  0.00 33.73  1.00  55.0  1.63   0.0  1.00  1.00  1.00
 2020 138   334   334  30.9 -30.9 5.739   3.6  0.00  0.00  0.00  0.00 -0.06  0.00  0.00  0.24  0.00 29.46  1.00  51.8  1.76   0.0  1.00  1.00  1.00
 2020 139   335   335  30.4 -30.4 5.751   3.3  0.00  0.00  0.00  0.00 -0.06  0.00  0.00  0.30  0.00 33.85  1.00  50.5  1.49   0.0  1.00  1.00  1.00
 2020 140   336   336  29.4 -29.4 5.763   3.5  0.00  0.00  0.00  0.00 -0.06  0.00  0.00  0.32  0.00 30.23  1.00  47.8  1.58   0.0  1.00  1.00  1.00
 2020 141   337   337  29.4 -29.4 5.775   3.8  0.00  0.00  0.05  0.00 -0.06  0.00  0.00  0.36  0.00 34.26  1.00  52.5  1.53   0.0  1.00  1.00  1.00
 2020 142   338   338  29.4 -29.4 5.788   3.7  0.00  0.00  0.00  0.00 -0.06  0.00  0.00  0.28  0.00 55.73  1.00  85.1  1.53   0.0  1.00  1.00  1.00
 2020 143   339   339  29.8 -29.8 5.807   3.8  0.00  0.00  0.00  0.00 -0.06  0.00  0.00  0.03  0.00 59.53  1.00  90.0  1.51   0.0  1.00  1.00  1.00
 2020 144   340   340  30.4 -30.4 5.825   3.6  0.00  0.00  0.00  0.00 -0.06  0.00  0.00  0.01  0.00 52.65  1.00  89.4  1.70   0.0  1.00  1.00  1.00
 2020 145   341   341  28.2 -28.2 5.842   3.5  0.00  0.00  0.00  0.00 -0.06  0.00  0.00  0.00  0.00 63.22  1.00  96.7  1.53   0.0  1.00  1.00  1.00
 2020 146   342   342  28.1 -28.1 5.862   4.1  0.00  0.00  0.00  0.00 -0.06  0.00  0.00  0.00  0.00 59.87  1.00  93.2  1.56   0.0  1.00  1.00  1.00
 2020 147   343   343  30.4 -30.4 5.883   4.1  0.00  0.00  0.00  0.00 -0.06  0.00  0.00  0.00  0.00 53.34  1.00  89.6  1.68   0.0  1.00  1.00  1.00
 2020 148   344   344  29.5 -29.5 5.900   3.5  0.00  0.00  0.00  0.00 -0.06  0.00  0.00  0.00  0.00 56.50  1.00  86.1  1.52   0.0  1.00  1.00  1.00
 2020 149   345   345  28.3 -28.3 5.919   3.7  0.00  0.00  0.00  0.00 -0.06  0.00  0.00  0.01  0.00 63.24  1.00 109.3  1.73   0.0  1.00  1.00  1.00
 2020 150   346   346  28.6 -28.6 5.939   4.0  0.00  0.00  0.00  0.00 -0.06  0.00  0.00  0.00  0.00 67.88  1.00 115.5  1.70   0.0  1.00  1.00  1.00
 2020 151   347   347  29.2 -29.2 5.959   4.0  0.00  0.00  0.00  0.00 -0.06  0.00  0.00  0.00  0.00 69.13  1.00 113.2  1.64   0.0  1.00  1.00  1.00
 2020 152   348   348  30.0 -30.0 5.978   3.8  0.00  0.00  0.00  0.00 -0.06  0.00  0.00  0.00  0.00 64.60  1.00 110.7  1.71   0.0  1.00  1.00  1.00
 2020 153   349   349  26.3 -26.3 5.996   3.6  0.00  0.00  0.00  0.00 -0.06  0.00  0.00  0.00  0.00 99.90  1.00 162.6  1.39   0.0  1.00  1.00  1.00
 2020 154   350   350  28.0 -28.0 6.061  13.1  0.00  0.00  0.00  0.00 -0.06  0.00  0.00  0.00  0.00 94.69  1.00 163.1  1.72   0.0  1.00  1.00  1.00
 2020 155   351   351  29.0 -29.0 6.081   4.1  0.00  0.00  0.00  0.00 -0.06  0.00  0.00  0.00  0.00 94.20  1.00 162.1  1.72   0.0  1.00  1.00  1.00
 2020 156   352   352  28.2 -28.2 6.101   3.8  0.00  0.00  0.00  0.00 -0.06  0.00  0.00  0.00  0.00 99.90  1.00 158.3  1.58   0.0  1.00  1.00  1.00
 2020 157   353   353  29.1 -29.1 6.121   4.1  0.00  0.00  0.00  0.00 -0.06  0.00  0.00  0.00  0.00 90.54  1.00 154.6  1.71   0.0  1.00  1.00  1.00
 2020 158   354   354  27.6 -27.6 6.140   3.8  0.00  0.00  0.00  0.00 -0.06  0.00  0.00  0.00  0.00 99.90  1.00 154.0  1.39   0.0  1.00  1.00  1.00
 2020 159   355   355  28.0 -28.0 6.161   4.2  0.00  0.00  0.00  0.00 -0.06  0.00  0.00  0.00  0.00 91.62  1.00 150.0  1.64   0.0  1.00  1.00  1.00
 2020 160   356   356  27.9 -27.9 6.182   4.1  0.00  0.00  0.00  0.00 -0.06  0.00  0.00  0.00  0.00 99.90  1.00 165.9  1.51   0.0  1.00  1.00  1.00
 2020 161   357   357  28.0 -28.0 6.203   4.2  0.00  0.00  0.00  0.00 -0.06  0.00  0.00  0.00  0.00 99.90  1.00 158.7  1.57   0.0  1.00  1.00  1.00
 2020 162   358   358  28.2 -28.2 6.224   4.1  0.00  0.00  0.00  0.00 -0.06  0.00  0.00  0.00  0.00 99.74  1.00 155.6  1.56   0.0  1.00  1.00  1.00
 2020 163   359   359  26.5 -26.5 6.244   4.1  0.00  0.00  0.00  0.00 -0.06  0.00  0.00  0.00  0.00 99.90  1.00 152.2  1.41   0.0  1.00  1.00  1.00
 2020 164   360   360  27.2 -27.2 6.267   4.6  0.00  0.00  0.00  0.00 -0.06  0.00  0.00  0.00  0.00 96.93  1.00 149.2  1.54   0.0  1.00  1.00  1.00
 2020 165   361   361  27.3 -27.3 6.289   4.4  0.00  0.00  0.00  0.00 -0.06  0.00  0.00  0.00  0.00 99.90  1.00 181.2  1.49   0.0  1.00  1.00  1.00
 2020 166   362   362  27.9 -27.9 6.310   4.3  0.00  0.00  0.00  0.00 -0.06  0.00  0.00  0.00  0.00 99.90  1.00 162.8  1.58   0.0  1.00  1.00  1.00
 2020 167   363   363  29.2 -29.2 6.331   4.2  0.00  0.00  0.00  0.00 -0.06  0.00  0.00  0.00  0.00 98.66  1.00 158.5  1.61   0.0  1.00  1.00  1.00
 2020 168   364   364  28.6 -28.6 6.350   3.8  0.00  0.00  0.00  0.00 -0.06  0.00  0.00  0.00  0.00 88.55  1.00 154.8  1.75   0.0  1.00  1.00  1.00
 2020 169   365   365  28.5 -28.5 6.370   4.0  0.00  0.00  0.00  0.00 -0.06  0.00  0.00  0.00  0.00 99.90  1.00 153.8  1.44   0.0  1.00  1.00  1.00
 2020 170   366   366  27.0 -27.0 6.390   4.0  0.00  0.00  0.00  0.00 -0.06  0.00  0.00  0.00  0.00 95.56  1.00 154.2  1.61   0.0  1.00  1.00  1.00
 2020 171   367   367  28.0 -28.0 6.412   4.4  0.00  0.00  0.00  0.00 -0.06  0.00  0.00  0.00  0.00 87.52  1.00 151.3  1.73   0.0  1.00  1.00  1.00
 2020 172   368   368  28.2 -28.2 6.433   4.1  0.00  0.00  0.00  0.00 -0.06  0.00  0.00  0.00  0.00 83.57  1.00 147.4  1.76   0.0  1.00  1.00  1.00
 2020 173   369   369  27.6 -27.6 6.453   4.1  0.00  0.00  0.00  0.00 -0.06  0.00  0.00  0.00  0.00 99.90  1.00 145.9  1.45   0.0  1.00  1.00  1.00
 2020 174   370   370  26.6 -26.6 6.475   4.2  0.00  0.00  0.00  0.00 -0.06  0.00  0.00  0.00  0.00 88.00  1.00 149.0  1.69   0.0  1.00  1.00  1.00
 2020 175   371   371  27.5 -27.5 6.497   4.5  0.00  0.00  0.00  0.00 -0.06  0.00  0.00  0.00  0.00 80.72  1.00 145.3  1.80   0.0  1.00  1.00  1.00
 2020 176   372   372  26.8 -26.8 6.519   4.3  0.00  0.00  0.00  0.00 -0.06  0.00  0.00  0.00  0.00 91.18  1.00 144.8  1.59   0.0  1.00  1.00  1.00
 2020 177   373   373  27.2 -27.2 6.541   4.5  0.00  0.00  0.00  0.00 -0.06  0.00  0.00  0.00  0.00 78.87  1.00 141.0  1.79   0.0  1.00  1.00  1.00
 2020 178   374   374  26.5 -26.5 6.563   4.4  0.00  0.00  0.00  0.00 -0.06  0.00  0.00  0.00  0.00 86.80  1.00 138.1  1.59   0.0  1.00  1.00  1.00
 2020 179   375   375  27.4 -27.4 6.586   4.6  0.00  0.00  0.00  0.00 -0.06  0.00  0.00  0.00  0.00 81.14  1.00 135.0  1.66   0.0  1.00  1.00  1.00
 2020 180   376   376  26.6 -26.6 6.607   4.3  0.00  0.00  0.00  0.00 -0.06  0.00  0.00  0.00  0.00 83.98  1.00 141.7  1.69   0.0  1.00  1.00  1.00
 2020 181   377   377  26.0 -26.0 6.630   4.5  0.00  0.00  0.00  0.00 -0.06  0.00  0.00  0.00  0.00 98.92  1.00 141.5  1.43   0.0  1.00  1.00  1.00
 2020 182   378   378  27.2 -27.2 6.654   4.7  0.00  0.00  0.00  0.00 -0.06  0.00  0.00  0.00  0.00 91.17  1.00 143.1  1.57   0.0  1.00  1.00  1.00
 2020 183   379   379  28.1 -28.1 6.675   4.4  0.00  0.00  0.00  0.00 -0.06  0.00  0.00  0.00  0.00 79.42  1.00 139.8  1.76   0.0  1.00  1.00  1.00
 2020 184   380   380  28.5 -28.5 6.696   4.1  0.00  0.00  0.00  0.00 -0.06  0.00  0.00  0.00  0.00 76.85  1.00 136.4  1.77   0.0  1.00  1.00  1.00
 2020 185   381   381  26.7 -26.7 6.716   4.0  0.00  0.00  0.00  0.00 -0.06  0.00  0.00  0.00  0.00 96.33  1.00 154.2  1.60   0.0  1.00  1.00  1.00
 2020 186   382   382  25.2 -25.2 6.739   4.5  0.00  0.00  0.00  0.00 -0.06  0.00  0.00  0.00  0.00 99.45  1.00 155.4  1.56   0.0  1.00  1.00  1.00
 2020 187   383   383  26.8 -26.8 6.763   4.9  0.00  0.00  0.00  0.00 -0.06  0.00  0.00  0.00  0.00 96.89  1.00 154.3  1.59   0.0  1.00  1.00  1.00
 2020 188   384   384  27.3 -27.3 6.786   4.5  0.00  0.00  0.00  0.00 -0.06  0.00  0.00  0.00  0.00 86.74  1.00 151.2  1.74   0.0  1.00  1.00  1.00
 2020 189   385   385  26.6 -26.6 6.807   4.3  0.00  0.00  0.00  0.00 -0.06  0.00  0.00  0.00  0.00 89.04  1.00 151.1  1.70   0.0  1.00  1.00  1.00
 2020 190   386   386  27.0 -27.0 6.830   4.5  0.00  0.00  0.00  0.00 -0.06  0.00  0.00  0.00  0.00 85.09  1.00 147.6  1.73   0.0  1.00  1.00  1.00
 2020 191   387   387  27.0 -27.0 6.852   4.4  0.00  0.00  0.00  0.00 -0.06  0.00  0.00  0.00  0.00 86.93  1.00 144.3  1.66   0.0  1.00  1.00  1.00
 2020 192   388   388  24.8 -24.8 6.874   4.4  0.00  0.01  0.00  0.00 -0.06  0.00  0.00  0.00  0.00 99.90  1.00 188.5  1.63   0.0  1.00  1.00  1.00
 2020 193   389   389  25.5 -25.5 6.899   5.0  0.00  0.00  0.00  0.00 -0.06  0.00  0.00  0.00  0.00 99.90  1.00 179.0  1.60   0.0  1.00  1.00  1.00
 2020 194   390   390  26.5 -26.5 6.924   4.8  0.00  0.00  0.00  0.00 -0.06  0.00  0.00  0.00  0.00 96.99  1.00 162.4  1.67   0.0  1.00  1.00  1.00
 2020 195   391   391  26.8 -26.8 6.946   4.6  0.00  0.00  0.00  0.00 -0.06  0.00  0.00  0.00  0.00 94.71  1.00 156.0  1.65   0.0  1.00  1.00  1.00
 2020 196   392   392  25.5 -25.5 6.969   4.5  0.00  0.00  0.00  0.00 -0.06  0.00  0.00  0.00  0.00 99.90  1.00 161.8  1.59   0.0  1.00  1.00  1.00
 2020 197   393   393  25.8 -25.8 6.993   4.9  0.00  0.00  0.00  0.00 -0.06  0.00  0.00  0.00  0.00 98.16  1.00 156.9  1.60   0.0  1.00  1.00  1.00
 2020 198   394   394  26.5 -26.5 7.048  11.0  0.00  0.00  0.00  0.00 -0.06  0.00  0.00  0.00  0.00 99.90  1.00 158.8  1.54   0.0  1.00  1.00  1.00
 2020 199   395   395  26.0 -26.0 7.071   4.6  0.00  0.00  0.00  0.00 -0.06  0.00  0.00  0.00  0.00 99.90  1.00 157.4  1.56   0.0  1.00  1.00  1.00
 2020 200   396   396  26.5 -26.5 7.095   4.7  0.00  0.00  0.00  0.00 -0.06  0.00  0.00  0.00  0.00 94.56  1.00 167.3  1.77   0.0  1.00  1.00  1.00
 2020 201   397   397  26.3 -26.3 7.117   4.6  0.00  0.00  0.00  0.00 -0.06  0.00  0.00  0.00  0.00 99.90  1.00 169.6  1.55   0.0  1.00  1.00  1.00
 2020 202   398   398  25.8 -25.8 7.141   4.6  0.00  0.00  0.00  0.00 -0.06  0.00  0.00  0.00  0.00 99.90  1.00 166.6  1.61   0.0  1.00  1.00  1.00
 2020 203   399   399  26.5 -26.5 7.164   4.8  0.00  0.00  0.00  0.00 -0.06  0.00  0.00  0.00  0.00 98.87  1.00 158.6  1.60   0.0  1.00  1.00  1.00
 2020 204   400   400  27.0 -27.0 7.187   4.6  0.00  0.00  0.00  0.00 -0.06  0.00  0.00  0.00  0.00 90.75  1.00 158.6  1.75   0.0  1.00  1.00  1.00
 2020 205   401   401  25.2 -25.2 7.209   4.4  0.00  0.00  0.00  0.00 -0.06  0.00  0.00  0.00  0.00 87.14  1.00 155.2  1.78   0.0  1.00  1.00  1.00
 2020 206   402   402  26.2 -26.2 7.234   4.9  0.00  0.00  0.00  0.00 -0.06  0.00  0.00  0.00  0.00 92.11  1.00 152.3  1.65   0.0  1.00  1.00  1.00
 2020 207   403   403  25.8 -25.8 7.257   4.7  0.00  0.00  0.00  0.00 -0.06  0.00  0.00  0.00  0.00 99.90  1.00 149.6  1.48   0.0  1.00  1.00  1.00
 2020 208   404   404  26.8 -26.8 7.281   4.8  0.00  0.00  0.00  0.00 -0.06  0.00  0.00  0.00  0.00 89.27  1.00 146.7  1.64   0.0  1.00  1.00  1.00
 2020 209   405   405  25.0 -25.0 7.304   4.5  0.00  0.00  0.00  0.00 -0.06  0.00  0.00  0.00  0.00 96.59  1.00 144.5  1.50   0.0  1.00  1.00  1.00

*DSSAT Cropping System Model Ver. 4.8.0.019 -develop  DEC 23, 2021 14:23:35

*RUN   2        : IITA-TMS-IBA30572         CSYCA048 UYAG1701    2
 MODEL          : CSYCA048 - Cassava
 EXPERIMENT     : UYAG1701 CS UYT_GXE
 DATA PATH      :
 TREATMENT  2   : IITA-TMS-IBA30572         CSYCA048
  
!........DATES.......  ...TEMP... STAGE  ...PHENOLOGY....  ....PHOTOSYNTHESIS....  .....GROWTH..... H2O STRESS DETERMINANTS .N STRESS DETERMINANTS.
@YEAR DOY   DAS   DAP TMEAN TCDIF  GSTD    DU DYLFD  TFPD  WFPD  NFPD CO2FD RSFPD  TFGD  WFGD  NFGD WAVRD WUPRD  SWXD  EOPD  SNXD LN%RD SN%RD RN%RD            
 2019 169     0     0  28.9 -99.0     0   0.0  0.00  0.00  0.00  0.00  0.00  0.00  0.00  0.00  0.00 99.90  1.00  26.5  0.00   0.0  1.00  1.00  0.00
 2019 170     1     1  29.0 -29.0     0   0.0  0.00  0.00  0.00  0.00  0.00  0.00  0.00  0.00  0.00 99.90  1.00  31.1  0.00   0.0  1.00  1.00  0.00
 2019 171     2     2  26.7 -26.7     0   0.0  0.00  0.00  0.00  0.00  0.00  0.00  0.00  0.00  0.00 99.90  1.00  28.0  0.00   0.0  1.00  1.00  0.00
 2019 172     3     3  27.7 -27.7     0   0.0  0.00  0.00  0.00  0.00  0.00  0.00  0.00  0.00  0.00 99.90  1.00  25.2  0.00   0.0  1.00  1.00  0.00
 2019 173     4     4  25.8 -25.8     0   0.0  0.00  0.00  0.00  0.00  0.00  0.00  0.00  0.00  0.00 99.90  1.00  28.1  0.00   0.0  1.00  1.00  0.00
 2019 174     5     5  27.6 -27.6     0   0.0  0.00  0.00  0.00  0.00  0.00  0.00  0.00  0.00  0.00 99.90  1.00  25.9  0.00   0.0  1.00  1.00  0.00
 2019 175     6     6  24.4 -24.4     0   0.0  0.00  0.00  0.00  0.00  0.00  0.00  0.00  0.00  0.00 99.90  1.00  32.9  0.00   0.0  1.00  1.00  0.00
 2019 176     7     7  26.4 -26.4     0   0.0  0.00  0.00  0.00  0.00  0.00  0.00  0.00  0.00  0.00 99.90  1.00  27.4  0.00   0.0  1.00  1.00  0.00
 2019 177     8     8  25.0 -25.0     0   3.6  0.00  0.00  0.00  0.00 -0.06  0.00  0.00  0.00  0.00 99.90  1.00  27.5  0.00   0.0  1.00  1.00  1.00
 2019 178     9     9  25.0 -25.0 .0200   5.0  0.00  0.00  0.00  0.00 -0.06  0.00  0.00  0.00  0.00 99.90  1.00  27.8  0.00   0.0  1.00  1.00  1.00
 2019 179    10    10  26.4 -26.4 .0400   5.0  0.00  0.00  0.00  0.00 -0.06  0.00  0.00  0.00  0.00 99.90  1.00  28.1  0.00   0.0  1.00  1.00  1.00
 2019 180    11    11  27.3 -27.3 .0585   4.6  0.00  0.00  0.00  0.00 -0.06  0.00  0.00  0.00  0.00 99.90  1.00  28.5  0.00   0.0  1.00  1.00  1.00
 2019 181    12    12  27.4 -27.4 .0758   4.3  0.00  0.00  0.00  0.00 -0.06  0.00  0.00  0.00  0.00 99.90  1.00  36.2  0.00   0.0  1.00  1.00  1.00
 2019 182    13    13  25.8 -25.8 .0931   4.3  0.00  0.00  0.00  0.00 -0.06  0.00  0.00  0.00  0.00 99.90  1.00  38.5  0.00   0.0  1.00  1.00  1.00
 2019 183    14    14  26.5 -26.5 0.112   4.8  0.00  0.00  0.00  0.00 -0.06  0.00  0.00  0.00  0.00 99.90  1.00  36.6  0.00   0.0  1.00  1.00  1.00
 2019 184    15    15  26.8 -26.8 0.131   4.6  0.00  0.00  0.00  0.00 -0.06  0.00  0.00  0.00  0.00 99.90  1.00  39.1  0.01   0.0  1.00  1.00  1.00
 2019 185    16    16  26.8 -26.8 0.148   4.5  0.00  0.00  0.00  0.00 -0.06  0.00  0.00  0.00  0.00 99.90  1.00  51.4  0.02   0.0  1.00  1.00  1.00
 2019 186    17    17  25.7 -25.7 0.166   4.5  0.00  0.00  0.00  0.00 -0.06  0.00  0.00  0.00  0.00 99.90  1.00  53.3  0.03   0.0  1.00  1.00  1.00
 2019 187    18    18  27.2 -27.2 0.186   4.8  0.00  0.00  0.00  0.00 -0.06  0.00  0.00  0.00  0.00 99.90  1.00  50.1  0.05   0.0  1.00  1.00  1.00
 2019 188    19    19  27.2 -27.2 0.203   4.4  0.00  0.00  0.00  0.00 -0.06  0.00  0.00  0.00  0.00 99.90  1.00  56.4  0.07   0.0  1.00  1.00  1.00
 2019 189    20    20  23.8 -23.8 0.221   4.4  0.00  0.08  0.00  0.00 -0.06  0.00  0.01  0.00  0.00 99.90  1.00  54.8  0.09   0.0  1.00  1.00  1.00
 2019 190    21    21  26.4 -26.4 0.241   5.0  0.00  0.00  0.00  0.00 -0.06  0.00  0.00  0.00  0.00 99.90  1.00  52.1  0.12   0.0  1.00  1.00  1.00
 2019 191    22    22  26.0 -26.0 0.259   4.6  0.00  0.00  0.00  0.00 -0.06  0.00  0.00  0.00  0.00 99.90  1.00  50.6  0.15   0.0  1.00  1.00  1.00
 2019 192    23    23  24.4 -24.4 0.278   4.7  0.00  0.04  0.00  0.00 -0.06  0.00  0.00  0.00  0.00 99.90  1.00  51.2  0.15   0.0  1.00  1.00  1.00
 2019 193    24    24  25.5 -25.5 0.298   5.0  0.00  0.00  0.00  0.00 -0.06  0.00  0.00  0.00  0.00 99.90  1.00  65.6  0.19   0.0  1.00  1.00  1.00
 2019 194    25    25  26.5 -26.5 0.317   4.9  0.00  0.00  0.00  0.00 -0.06  0.00  0.00  0.00  0.00 99.90  1.00  56.6  0.25   0.0  1.00  1.00  1.00
 2019 195    26    26  26.0 -26.0 0.336   4.6  0.00  0.00  0.00  0.00 -0.06  0.00  0.00  0.00  0.00 99.90  1.00  69.1  0.27   0.0  1.00  1.00  1.00
 2019 196    27    27  26.2 -26.2 0.355   4.7  0.00  0.00  0.00  0.00 -0.06  0.00  0.00  0.00  0.00 99.90  1.00  70.6  0.29   0.0  1.00  1.00  1.00
 2019 197    28    28  27.5 -27.5 0.373   4.7  0.00  0.00  0.00  0.00 -0.06  0.00  0.00  0.00  0.00 99.90  1.00  65.6  0.35   0.0  1.00  1.00  1.00
 2019 198    29    29  27.4 -27.4 0.390   4.3  0.00  0.00  0.00  0.00 -0.06  0.00  0.00  0.00  0.00 99.90  1.00  62.8  0.40   0.0  1.00  1.00  1.00
 2019 199    30    30  26.5 -26.5 0.408   4.3  0.00  0.00  0.00  0.00 -0.06  0.00  0.00  0.00  0.00 99.90  1.00  59.2  0.35   0.0  1.00  1.00  1.00
 2019 200    31    31  24.8 -24.8 0.426   4.6  0.00  0.02  0.00  0.00 -0.06  0.00  0.00  0.00  0.00 99.90  1.00  69.5  0.38   0.0  1.00  1.00  1.00
 2019 201    32    32  26.0 -26.0 0.446   5.0  0.00  0.00  0.00  0.00 -0.06  0.00  0.00  0.00  0.00 99.90  1.00  67.3  0.49   0.0  1.00  1.00  1.00
 2019 202    33    33  26.4 -26.4 0.465   4.7  0.00  0.00  0.00  0.00 -0.06  0.00  0.00  0.00  0.00 99.90  1.00  63.3  0.52   0.0  1.00  1.00  1.00
 2019 203    34    34  25.7 -25.7 0.483   4.6  0.00  0.00  0.00  0.00 -0.06  0.00  0.00  0.00  0.00 99.90  1.00  64.5  0.49   0.0  1.00  1.00  1.00
 2019 204    35    35  26.8 -26.8 0.502   4.8  0.00  0.00  0.00  0.00 -0.06  0.00  0.00  0.00  0.00 99.90  1.00  64.4  0.57   0.0  1.00  1.00  1.00
 2019 205    36    36  27.7 -27.7 0.520   4.5  0.00  0.00  0.00  0.00 -0.06  0.00  0.00  0.00  0.00 99.90  1.00  63.9  0.56   0.0  1.00  1.00  1.00
 2019 206    37    37  24.8 -24.8 0.537   4.2  0.00  0.01  0.00  0.00 -0.06  0.00  0.00  0.00  0.00 99.90  1.00  70.0  0.56   0.0  1.00  1.00  1.00
 2019 207    38    38  25.8 -25.8 0.557   5.0  0.00  0.00  0.00  0.00 -0.06  0.00  0.00  0.00  0.00 99.90  1.00  68.5  0.56   0.0  1.00  1.00  1.00
 2019 208    39    39  25.9 -25.9 0.576   4.8  0.00  0.00  0.00  0.00 -0.06  0.00  0.00  0.00  0.00 99.90  1.00  67.6  0.62   0.0  1.00  1.00  1.00
 2019 209    40    40  26.1 -26.1 0.595   4.8  0.00  0.00  0.00  0.00 -0.06  0.00  0.00  0.00  0.00 97.07  1.00  66.7  0.69   0.0  1.00  1.00  1.00
 2019 210    41    41  26.2 -26.2 0.614   4.7  0.00  0.00  0.00  0.00 -0.06  0.00  0.00  0.00  0.00 94.92  1.00  65.9  0.69   0.0  1.00  1.00  1.00
 2019 211    42    42  26.5 -26.5 0.633   4.6  0.00  0.00  0.00  0.00 -0.06  0.00  0.00  0.00  0.00 93.89  1.00  65.4  0.70   0.0  1.00  1.00  1.00
 2019 212    43    43  26.2 -26.2 0.651   4.6  0.00  0.00  0.00  0.00 -0.06  0.00  0.00  0.00  0.00 84.92  1.00  64.7  0.76   0.0  1.00  1.00  1.00
 2019 213    44    44  25.8 -25.8 0.670   4.6  0.00  0.00  0.00  0.00 -0.06  0.00  0.00  0.01  0.00 86.21  1.00  71.4  0.83   0.0  1.00  1.00  1.00
 2019 214    45    45  25.1 -25.1 0.689   4.8  0.00  0.00  0.00  0.00 -0.06  0.00  0.00  0.00  0.00 92.49  1.00  75.6  0.82   0.0  1.00  1.00  1.00
 2019 215    46    46  25.8 -25.8 0.708   5.0  0.00  0.00  0.00  0.00 -0.06  0.00  0.00  0.00  0.00 86.81  1.00  73.4  0.85   0.0  1.00  1.00  1.00
 2019 216    47    47  26.0 -26.0 0.728   4.8  0.00  0.00  0.00  0.00 -0.06  0.00  0.00  0.00  0.00 74.48  1.00  72.2  0.97   0.0  1.00  1.00  1.00
 2019 217    48    48  25.8 -25.8 0.746   4.7  0.00  0.00  0.00  0.00 -0.06  0.00  0.00  0.00  0.00 91.57  1.00  86.7  0.95   0.0  1.00  1.00  1.00
 2019 218    49    49  25.8 -25.8 0.765   4.8  0.00  0.00  0.00  0.00 -0.06  0.00  0.00  0.00  0.00 95.20  1.00  92.1  0.97   0.0  1.00  1.00  1.00
 2019 219    50    50  24.2 -24.2 0.785   4.8  0.00  0.06  0.00  0.00 -0.06  0.00  0.00  0.00  0.00 99.90  1.00  96.9  0.93   0.0  1.00  1.00  1.00
 2019 220    51    51  24.7 -24.7 0.805   5.0  0.00  0.02  0.00  0.00 -0.06  0.00  0.00  0.00  0.00 94.57  1.00  94.4  1.00   0.0  1.00  1.00  1.00
 2019 221    52    52  25.6 -25.6 0.825   5.0  0.00  0.00  0.00  0.00 -0.06  0.00  0.00  0.00  0.00 83.07  1.00  91.8  1.10   0.0  1.00  1.00  1.00
 2019 222    53    53  26.4 -26.4 0.844   4.8  0.00  0.00  0.00  0.00 -0.06  0.00  0.00  0.00  0.00 73.63  1.00  86.9  1.18   0.0  1.00  1.00  1.00
 2019 223    54    54  26.5 -26.5 0.862   4.6  0.00  0.00  0.00  0.00 -0.06  0.00  0.00  0.00  0.00 80.04  1.00  90.7  1.13   0.0  1.00  1.00  1.00
 2019 224    55    55  24.9 -24.9 0.880   4.6  0.00  0.01  0.00  0.00 -0.06  0.00  0.00  0.00  0.00 75.03  1.00  88.8  1.18   0.0  1.00  1.00  1.00
 2019 225    56    56  26.2 -26.2 0.900   5.0  0.00  0.00  0.00  0.00 -0.06  0.00  0.00  0.00  0.00 68.08  1.00  87.6  1.29   0.0  1.00  1.00  1.00
 2019 226    57    57  26.5 -26.5 0.919   4.7  0.00  0.00  0.00  0.00 -0.06  0.00  0.00  0.00  0.00 63.62  1.00  85.9  1.35   0.0  1.00  1.00  1.00
 2019 227    58    58  25.3 -25.3 0.937   4.6  0.00  0.00  0.00  0.00 -0.06  0.00  0.00  0.00  0.00 65.66  1.00  86.1  1.31   0.0  1.00  1.00  1.00
 2019 228    59    59  25.3 -25.3 0.957   4.9  0.00  0.00  0.00  0.00 -0.06  0.00  0.00  0.00  0.00 66.11  1.00  86.0  1.30   0.0  1.00  1.00  1.00
 2019 229    60    60  26.4 -26.4 0.977   4.9  0.00  0.00  0.00  0.00 -0.06  0.00  0.00  0.00  0.00 59.70  1.00  84.3  1.41   0.0  1.00  1.00  1.00
 2019 230    61    61  25.7 -25.7     1   4.6  0.00  0.00  0.00  0.00 -0.06  0.00  0.00  0.00  0.00 74.94  1.00 104.6  1.40   0.0  1.00  1.00  1.00
 2019 231    62    62  25.3 -25.3 1.046  10.4  0.00  0.00  0.00  0.00 -0.06  0.00  0.00  0.00  0.00 75.25  1.00 103.4  1.37   0.0  1.00  1.00  1.00
 2019 232    63    63  26.8 -26.8 1.070   4.9  0.00  0.00  0.00  0.00 -0.06  0.00  0.00  0.00  0.00 66.08  1.00 100.1  1.52   0.0  1.00  1.00  1.00
 2019 233    64    64  26.4 -26.4 1.093   4.5  0.00  0.00  0.00  0.00 -0.06  0.00  0.00  0.00  0.00 80.02  1.00 116.6  1.46   0.0  1.00  1.00  1.00
 2019 234    65    65  25.8 -25.8 1.116   4.6  0.00  0.00  0.00  0.00 -0.06  0.00  0.00  0.00  0.00 70.37  1.00 113.8  1.62   0.0  1.00  1.00  1.00
 2019 235    66    66  25.6 -25.6 1.140   4.8  0.00  0.00  0.00  0.00 -0.06  0.00  0.00  0.00  0.00 90.42  1.00 125.4  1.39   0.0  1.00  1.00  1.00
 2019 236    67    67  25.5 -25.5 1.164   4.8  0.00  0.00  0.00  0.00 -0.06  0.00  0.00  0.00  0.00 78.20  1.00 119.7  1.53   0.0  1.00  1.00  1.00
 2019 237    68    68  25.6 -25.6 1.188   4.8  0.00  0.00  0.00  0.00 -0.06  0.00  0.00  0.00  0.00 65.26  1.00 117.1  1.80   0.0  1.00  1.00  1.00
 2019 238    69    69  25.9 -25.9 1.212   4.8  0.00  0.00  0.00  0.00 -0.06  0.00  0.00  0.00  0.00 58.84  1.00 108.6  1.85   0.0  1.00  1.00  1.00
 2019 239    70    70  24.7 -24.7 1.236   4.7  0.00  0.02  0.00  0.00 -0.06  0.00  0.00  0.00  0.00 62.98  1.00 109.9  1.75   0.0  1.00  1.00  1.00
 2019 240    71    71  26.3 -26.3 1.261   5.0  0.00  0.00  0.00  0.00 -0.06  0.00  0.00  0.00  0.00 58.98  1.00 110.4  1.87   0.0  1.00  1.00  1.00
 2019 241    72    72  26.9 -26.9 1.284   4.6  0.00  0.00  0.00  0.00 -0.06  0.00  0.00  0.00  0.00 50.20  1.00 110.8  2.21   0.0  1.00  1.00  1.00
 2019 242    73    73  26.9 -26.9 1.306   4.5  0.00  0.00  0.00  0.00 -0.06  0.00  0.00  0.00  0.00 53.16  1.00 108.5  2.04   0.0  1.00  1.00  1.00
 2019 243    74    74  25.8 -25.8 1.328   4.5  0.00  0.00  0.00  0.00 -0.06  0.00  0.00  0.00  0.00 62.05  1.00 129.4  2.09   0.0  1.00  1.00  1.00
 2019 244    75    75  26.2 -26.2 1.352   4.8  0.00  0.00  0.00  0.00 -0.06  0.00  0.00  0.00  0.00 48.26  1.00 117.7  2.44   0.0  1.00  1.00  1.00
 2019 245    76    76  26.1 -26.1 1.376   4.7  0.00  0.00  0.00  0.00 -0.06  0.00  0.00  0.00  0.00 50.63  1.00 115.6  2.28   0.0  1.00  1.00  1.00
 2019 246    77    77  27.0 -27.0 1.399   4.7  0.00  0.00  0.00  0.00 -0.06  0.00  0.00  0.00  0.00 48.73  1.00 116.9  2.40   0.0  1.00  1.00  1.00
 2019 247    78    78  27.1 -27.1 1.421   4.4  0.00  0.00  0.00  0.00 -0.06  0.00  0.00  0.00  0.00 52.50  1.00 127.7  2.43   0.0  1.00  1.00  1.00
 2019 248    79    79  26.0 -26.0 1.443   4.4  0.00  0.00  0.00  0.00 -0.06  0.00  0.00  0.00  0.00 58.47  1.00 146.9  2.51   0.0  1.00  1.00  1.00
 2019 249    80    80  26.9 -26.9 1.467   4.7  0.00  0.00  0.00  0.00 -0.06  0.00  0.00  0.00  0.00 51.64  1.00 137.0  2.65   0.0  1.00  1.00  1.00
 2019 250    81    81  27.0 -27.0 1.489   4.5  0.00  0.00  0.00  0.00 -0.06  0.00  0.00  0.00  0.00 51.85  1.00 135.4  2.61   0.0  1.00  1.00  1.00
 2019 251    82    82  26.0 -26.0 1.511   4.4  0.00  0.00  0.00  0.00 -0.06  0.00  0.00  0.00  0.00 53.83  1.00 130.9  2.43   0.0  1.00  1.00  1.00
 2019 252    83    83  25.5 -25.5 1.535   4.7  0.00  0.00  0.00  0.00 -0.06  0.00  0.00  0.00  0.00 53.11  1.00 135.6  2.55   0.0  1.00  1.00  1.00
 2019 253    84    84  26.1 -26.1 1.559   4.8  0.00  0.00  0.00  0.00 -0.06  0.00  0.00  0.00  0.00 57.45  1.00 153.6  2.67   0.0  1.00  1.00  1.00
 2019 254    85    85  26.0 -26.0 1.582   4.7  0.00  0.00  0.00  0.00 -0.06  0.00  0.00  0.00  0.00 56.63  1.00 153.0  2.70   0.0  1.00  1.00  1.00
 2019 255    86    86  26.8 -26.8 1.606   4.7  0.00  0.00  0.00  0.00 -0.06  0.00  0.00  0.00  0.00 52.58  1.00 144.4  2.75   0.0  1.00  1.00  1.00
 2019 256    87    87  27.6 -27.6 1.628   4.5  0.00  0.00  0.00  0.00 -0.06  0.00  0.00  0.00  0.00 51.39  1.00 140.8  2.74   0.0  1.00  1.00  1.00
 2019 257    88    88  27.0 -27.0 1.650   4.3  0.00  0.00  0.00  0.00 -0.06  0.00  0.00  0.00  0.00 50.88  1.00 140.5  2.76   0.0  1.00  1.00  1.00
 2019 258    89    89  26.6 -26.6 1.672   4.4  0.00  0.00  0.00  0.00 -0.06  0.00  0.00  0.00  0.00 47.18  1.00 137.1  2.91   0.0  1.00  1.00  1.00
 2019 259    90    90  25.6 -25.6 1.695   4.5  0.00  0.00  0.00  0.00 -0.06  0.00  0.00  0.00  0.00 62.10  1.00 157.8  2.54   0.0  1.00  1.00  1.00
 2019 260    91    91  26.7 -26.7 1.719   4.8  0.00  0.00  0.00  0.00 -0.06  0.00  0.00  0.00  0.00 55.05  1.00 150.8  2.74   0.0  1.00  1.00  1.00
 2019 261    92    92  27.1 -27.1 1.741   4.5  0.00  0.00  0.00  0.00 -0.06  0.00  0.00  0.00  0.00 54.73  1.00 166.5  3.04   0.0  1.00  1.00  1.00
 2019 262    93    93  25.5 -25.5 1.763   4.4  0.00  0.00  0.00  0.00 -0.06  0.00  0.00  0.00  0.00 59.86  1.00 158.5  2.65   0.0  1.00  1.00  1.00
 2019 263    94    94  26.8 -26.8 1.787   4.8  0.00  0.00  0.00  0.00 -0.06  0.00  0.00  0.00  0.00 41.84  1.00 142.4  3.40   0.0  1.00  1.00  1.00
 2019 264    95    95  26.6 -26.6 1.810   4.5  0.00  0.00  0.00  0.00 -0.06  0.00  0.00  0.00  0.00 44.03  1.00 145.4  3.30   0.0  1.00  1.00  1.00
 2019 265    96    96  27.0 -27.0 1.833   4.5  0.00  0.00  0.00  0.00 -0.06  0.00  0.00  0.00  0.00 41.74  1.00 143.1  3.43   0.0  1.00  1.00  1.00
 2019 266    97    97  27.8 -27.8 1.855   4.4  0.00  0.00  0.00  0.00 -0.06  0.00  0.00  0.00  0.00 47.82  1.00 147.3  3.08   0.0  1.00  1.00  1.00
 2019 267    98    98  27.5 -27.5 1.876   4.2  0.00  0.00  0.00  0.00 -0.06  0.00  0.00  0.00  0.00 51.73  1.00 161.2  3.12   0.0  1.00  1.00  1.00
 2019 268    99    99  27.7 -27.7 1.897   4.3  0.00  0.00  0.00  0.00 -0.06  0.00  0.00  0.00  0.00 49.17  1.00 168.4  3.42   0.0  1.00  1.00  1.00
 2019 269   100   100  26.5 -26.5 1.918   4.2  0.00  0.00  0.00  0.00 -0.06  0.00  0.00  0.00  0.00 53.37  1.00 168.0  3.15   0.0  1.00  1.00  1.00
 2019 270   101   101  25.9 -25.9 1.941   4.6  0.00  0.00  0.00  0.00 -0.06  0.00  0.00  0.00  0.00 59.92  1.00 176.1  2.94   0.0  1.00  1.00  1.00
 2019 271   102   102  26.9 -26.9 1.965   4.7  0.00  0.00  0.00  0.00 -0.06  0.00  0.00  0.00  0.00 52.09  1.00 177.3  3.40   0.0  1.00  1.00  1.00
 2019 272   103   103  27.1 -27.1 1.987   4.5  0.00  0.00  0.00  0.00 -0.06  0.00  0.00  0.00  0.00 53.78  1.00 170.8  3.18   0.0  1.00  1.00  1.00
 2019 273   104   104  27.4 -27.4 2.030   8.6  0.00  0.00  0.00  0.00 -0.06  0.00  0.00  0.00  0.00 54.09  1.00 165.0  3.05   0.0  1.00  1.00  1.00
 2019 274   105   105  27.3 -27.3 2.052   4.3  0.00  0.00  0.00  0.00 -0.06  0.00  0.00  0.00  0.00 54.44  1.00 171.1  3.14   0.0  1.00  1.00  1.00
 2019 275   106   106  26.1 -26.1 2.074   4.3  0.00  0.00  0.00  0.00 -0.06  0.00  0.00  0.00  0.00 61.49  1.00 178.9  2.91   0.0  1.00  1.00  1.00
 2019 276   107   107  26.0 -26.0 2.097   4.7  0.00  0.00  0.00  0.00 -0.06  0.00  0.00  0.00  0.00 64.95  1.00 190.3  2.93   0.0  1.00  1.00  1.00
 2019 277   108   108  26.7 -26.7 2.121   4.7  0.00  0.00  0.00  0.00 -0.06  0.00  0.00  0.00  0.00 59.47  1.00 184.7  3.11   0.0  1.00  1.00  1.00
 2019 278   109   109  26.9 -26.9 2.143   4.5  0.00  0.00  0.00  0.00 -0.06  0.00  0.00  0.00  0.00 51.77  1.00 163.2  3.15   0.0  1.00  1.00  1.00
 2019 279   110   110  25.7 -25.7 2.166   4.5  0.00  0.00  0.00  0.00 -0.06  0.00  0.00  0.00  0.00 55.72  1.00 164.4  2.95   0.0  1.00  1.00  1.00
 2019 280   111   111  25.6 -25.6 2.190   4.8  0.00  0.00  0.00  0.00 -0.06  0.00  0.00  0.00  0.00 62.86  1.00 171.9  2.74   0.0  1.00  1.00  1.00
 2019 281   112   112  25.8 -25.8 2.214   4.8  0.00  0.00  0.00  0.00 -0.06  0.00  0.00  0.00  0.00 59.13  1.00 172.9  2.92   0.0  1.00  1.00  1.00
 2019 282   113   113  26.9 -26.9 2.238   4.8  0.00  0.00  0.00  0.00 -0.06  0.00  0.00  0.00  0.00 60.64  1.00 168.7  2.78   0.0  1.00  1.00  1.00
 2019 283   114   114  27.0 -27.0 2.260   4.5  0.00  0.00  0.00  0.00 -0.06  0.00  0.00  0.00  0.00 55.97  1.00 167.0  2.98   0.0  1.00  1.00  1.00
 2019 284   115   115  26.6 -26.6 2.282   4.4  0.00  0.00  0.00  0.00 -0.06  0.00  0.00  0.00  0.00 61.09  1.00 190.8  3.12   0.0  1.00  1.00  1.00
 2019 285   116   116  26.8 -26.8 2.305   4.5  0.00  0.00  0.00  0.00 -0.06  0.00  0.00  0.00  0.00 58.54  1.00 188.2  3.21   0.0  1.00  1.00  1.00
 2019 286   117   117  27.0 -27.0 2.327   4.5  0.00  0.00  0.00  0.00 -0.06  0.00  0.00  0.00  0.00 55.88  1.00 176.3  3.16   0.0  1.00  1.00  1.00
 2019 287   118   118  27.3 -27.3 2.349   4.4  0.00  0.00  0.00  0.00 -0.06  0.00  0.00  0.00  0.00 56.62  1.00 187.8  3.32   0.0  1.00  1.00  1.00
 2019 288   119   119  27.8 -27.8 2.371   4.3  0.00  0.00  0.00  0.00 -0.06  0.00  0.00  0.00  0.00 58.69  1.00 179.3  3.05   0.0  1.00  1.00  1.00
 2019 289   120   120  25.5 -25.5 2.392   4.2  0.00  0.00  0.00  0.00 -0.06  0.00  0.00  0.00  0.00 54.06  1.00 180.2  3.33   0.0  1.00  1.00  1.00
 2019 290   121   121  27.3 -27.3 2.416   4.9  0.00  0.00  0.00  0.00 -0.06  0.00  0.00  0.00  0.00 61.00  1.00 175.9  2.88   0.0  1.00  1.00  1.00
 2019 291   122   122  26.2 -26.2 2.438   4.3  0.00  0.00  0.00  0.00 -0.06  0.00  0.00  0.00  0.00 61.73  1.00 191.3  3.10   0.0  1.00  1.00  1.00
 2019 292   123   123  26.6 -26.6 2.461   4.7  0.00  0.00  0.00  0.00 -0.06  0.00  0.00  0.00  0.00 60.29  1.00 183.9  3.05   0.0  1.00  1.00  1.00
 2019 293   124   124  27.1 -27.1 2.484   4.5  0.00  0.00  0.00  0.00 -0.06  0.00  0.00  0.00  0.00 56.60  1.00 176.4  3.12   0.0  1.00  1.00  1.00
 2019 294   125   125  27.0 -27.0 2.506   4.4  0.00  0.00  0.00  0.00 -0.06  0.00  0.00  0.00  0.00 53.84  1.00 181.3  3.37   0.0  1.00  1.00  1.00
[...]
 2020  75   271   271  29.3 -29.3 4.920   3.9  0.00  0.00  0.07  0.00 -0.06  0.00  0.00  0.38  0.00 25.72  1.00  54.7  2.13   0.0  1.00  1.00  1.00
 2020  76   272   272  30.3 -30.3 4.931   3.8  0.00  0.00  0.15  0.00 -0.06  0.00  0.00  0.44  0.00 24.22  1.00  51.6  2.13   0.0  1.00  1.00  1.00
 2020  77   273   273  30.9 -30.9 4.940   3.5  0.00  0.00  0.23  0.00 -0.06  0.00  0.00  0.49  0.00 20.61  1.00  48.5  2.35   0.0  1.00  1.00  1.00
 2020  78   274   274  31.3 -31.3 4.947   3.3  0.00  0.00  0.31  0.00 -0.06  0.00  0.00  0.54  0.00 32.89  1.00  71.3  2.17   0.0  1.00  1.00  1.00
 2020  79   275   275  31.3 -31.3 4.960   3.2  0.00  0.00  0.00  0.00 -0.06  0.00  0.00  0.21  0.00 29.24  1.00  65.9  2.25   0.0  1.00  1.00  1.00
 2020  80   276   276  30.2 -30.2 4.972   3.2  0.00  0.00  0.00  0.00 -0.06  0.00  0.00  0.22  0.00 28.66  1.00  62.4  2.18   0.0  1.00  1.00  1.00
 2020  81   277   277  31.5 -31.5 4.985   3.5  0.00  0.00  0.00  0.00 -0.06  0.00  0.00  0.28  0.00 26.57  1.00  58.9  2.22   0.0  1.00  1.00  1.00
 2020  82   278   278  30.5 -30.5 4.996   3.4  0.00  0.00  0.02  0.00 -0.06  0.00  0.00  0.35  0.00 28.01  1.00  55.8  1.99   0.0  1.00  1.00  1.00
 2020  83   279   279  30.7 -30.7 5.037  13.7  0.00  0.00  0.10  0.00 -0.06  0.00  0.00  0.40  0.00 32.07  1.00  60.4  1.88   0.0  1.00  1.00  1.00
 2020  84   280   280  28.7 -28.7 5.049   3.4  0.00  0.00  0.00  0.00 -0.06  0.00  0.00  0.31  0.00 31.69  1.00  57.2  1.81   0.0  1.00  1.00  1.00
 2020  85   281   281  29.9 -29.9 5.061   3.9  0.00  0.00  0.03  0.00 -0.06  0.00  0.00  0.35  0.00 31.33  1.00  54.1  1.73   0.0  1.00  1.00  1.00
 2020  86   282   282  30.1 -30.1 5.072   3.6  0.00  0.00  0.11  0.00 -0.06  0.00  0.00  0.41  0.00 27.10  1.00  50.9  1.88   0.0  1.00  1.00  1.00
 2020  87   283   283  31.5 -31.5 5.081   3.5  0.00  0.00  0.19  0.00 -0.06  0.00  0.00  0.46  0.00 23.72  1.00  47.8  2.01   0.0  1.00  1.00  1.00
 2020  88   284   284  31.3 -31.3 5.089   3.2  0.00  0.00  0.28  0.00 -0.06  0.00  0.00  0.52  0.00 23.07  1.00  44.8  1.94   0.0  1.00  1.00  1.00
 2020  89   285   285  31.7 -31.7 5.096   3.2  0.00  0.00  0.35  0.00 -0.06  0.00  0.00  0.57  0.00 36.11  1.00  69.0  1.91   0.0  1.00  1.00  1.00
 2020  90   286   286  31.8 -31.8 5.108   3.1  0.00  0.00  0.00  0.00 -0.06  0.00  0.00  0.22  0.00 34.56  1.00  64.0  1.85   0.0  1.00  1.00  1.00
 2020  91   287   287  30.8 -30.8 5.120   3.1  0.00  0.00  0.00  0.00 -0.06  0.00  0.00  0.22  0.00 47.96  1.00  81.2  1.69   0.0  1.00  1.00  1.00
 2020  92   288   288  30.0 -30.0 5.135   3.3  0.00  0.00  0.00  0.00 -0.06  0.00  0.00  0.11  0.00 47.69  1.00  76.8  1.61   0.0  1.00  1.00  1.00
 2020  93   289   289  30.6 -30.6 5.151   3.6  0.00  0.00  0.00  0.00 -0.06  0.00  0.00  0.09  0.00 35.83  1.00  71.3  1.99   0.0  1.00  1.00  1.00
 2020  94   290   290  31.2 -31.2 5.165   3.4  0.00  0.00  0.00  0.00 -0.06  0.00  0.00  0.16  0.00 39.00  1.00  68.2  1.75   0.0  1.00  1.00  1.00
 2020  95   291   291  28.9 -28.9 5.178   3.2  0.00  0.00  0.00  0.00 -0.06  0.00  0.00  0.22  0.00 39.88  1.00  65.3  1.64   0.0  1.00  1.00  1.00
 2020  96   292   292  30.6 -30.6 5.192   3.9  0.00  0.00  0.00  0.00 -0.06  0.00  0.00  0.26  0.00 32.28  1.00  62.3  1.93   0.0  1.00  1.00  1.00
 2020  97   293   293  30.7 -30.7 5.204   3.4  0.00  0.00  0.00  0.00 -0.06  0.00  0.00  0.31  0.00 36.01  1.00  61.7  1.71   0.0  1.00  1.00  1.00
 2020  98   294   294  30.8 -30.8 5.215   3.4  0.00  0.00  0.00  0.00 -0.06  0.00  0.00  0.32  0.00 29.73  1.00  58.6  1.97   0.0  1.00  1.00  1.00
 2020  99   295   295  29.6 -29.6 5.226   3.3  0.00  0.00  0.05  0.00 -0.06  0.00  0.00  0.37  0.00 34.61  1.00  56.0  1.62   0.0  1.00  1.00  1.00
 2020 100   296   296  29.5 -29.5 5.237   3.7  0.00  0.00  0.12  0.00 -0.06  0.00  0.00  0.41  0.00 34.12  1.00  53.5  1.57   0.0  1.00  1.00  1.00
 2020 101   297   297  30.4 -30.4 5.247   3.7  0.00  0.00  0.18  0.00 -0.06  0.00  0.00  0.45  0.00 42.83  1.00  75.7  1.77   0.0  1.00  1.00  1.00
 2020 102   298   298  28.5 -28.5 5.262   3.5  0.00  0.00  0.00  0.00 -0.06  0.00  0.00  0.13  0.00 46.47  1.00  72.9  1.57   0.0  1.00  1.00  1.00
 2020 103   299   299  30.7 -30.7 5.279   4.0  0.00  0.00  0.00  0.00 -0.06  0.00  0.00  0.12  0.00 33.81  1.00  67.7  2.00   0.0  1.00  1.00  1.00
 2020 104   300   300  31.5 -31.5 5.293   3.4  0.00  0.00  0.00  0.00 -0.06  0.00  0.00  0.17  0.00 34.84  1.00  64.4  1.85   0.0  1.00  1.00  1.00
 2020 105   301   301  31.9 -31.9 5.305   3.1  0.00  0.00  0.00  0.00 -0.06  0.00  0.00  0.23  0.00 30.43  1.00  61.1  2.01   0.0  1.00  1.00  1.00
 2020 106   302   302  31.9 -31.9 5.316   3.0  0.00  0.00  0.00  0.00 -0.06  0.00  0.00  0.28  0.00 32.57  1.00  58.2  1.79   0.0  1.00  1.00  1.00
 2020 107   303   303  31.5 -31.5 5.326   3.0  0.00  0.00  0.00  0.00 -0.06  0.00  0.00  0.33  0.00 31.31  1.00  55.3  1.77   0.0  1.00  1.00  1.00
 2020 108   304   304  30.9 -30.9 5.336   3.1  0.00  0.00  0.07  0.00 -0.06  0.00  0.00  0.38  0.00 29.44  1.00  52.7  1.79   0.0  1.00  1.00  1.00
 2020 109   305   305  31.0 -31.0 5.346   3.3  0.00  0.00  0.13  0.00 -0.06  0.00  0.00  0.42  0.00 34.49  1.00  50.5  1.46   0.0  1.00  1.00  1.00
 2020 110   306   306  30.0 -30.0 5.355   3.3  0.00  0.00  0.19  0.00 -0.06  0.00  0.00  0.46  0.00 30.94  1.00  48.7  1.58   0.0  1.00  1.00  1.00
 2020 111   307   307  30.0 -30.0 5.364   3.6  0.00  0.00  0.23  0.00 -0.06  0.00  0.00  0.49  0.00 29.52  1.00  46.9  1.59   0.0  1.00  1.00  1.00
 2020 112   308   308  31.3 -31.3 5.372   3.6  0.00  0.00  0.27  0.00 -0.06  0.00  0.00  0.51  0.00 39.62  1.00  69.9  1.76   0.0  1.00  1.00  1.00
 2020 113   309   309  30.7 -30.7 5.386   3.2  0.00  0.00  0.00  0.00 -0.06  0.00  0.00  0.18  0.00 41.18  1.00  65.5  1.59   0.0  1.00  1.00  1.00
 2020 114   310   310  30.1 -30.1 5.400   3.4  0.00  0.00  0.00  0.00 -0.06  0.00  0.00  0.17  0.00 37.62  1.00  62.7  1.67   0.0  1.00  1.00  1.00
 2020 115   311   311  30.4 -30.4 5.413   3.5  0.00  0.00  0.00  0.00 -0.06  0.00  0.00  0.22  0.00 36.05  1.00  59.7  1.66   0.0  1.00  1.00  1.00
 2020 116   312   312  30.5 -30.5 5.426   3.5  0.00  0.00  0.00  0.00 -0.06  0.00  0.00  0.27  0.00 39.69  1.00  62.6  1.58   0.0  1.00  1.00  1.00
 2020 117   313   313  29.8 -29.8 5.440   3.4  0.00  0.00  0.00  0.00 -0.06  0.00  0.00  0.21  0.00 38.73  1.00  63.0  1.63   0.0  1.00  1.00  1.00
 2020 118   314   314  29.5 -29.5 5.454   3.6  0.00  0.00  0.00  0.00 -0.06  0.00  0.00  0.21  0.00 39.99  1.00  59.3  1.48   0.0  1.00  1.00  1.00
 2020 119   315   315  30.4 -30.4 5.468   3.7  0.00  0.00  0.00  0.00 -0.06  0.00  0.00  0.25  0.00 32.88  1.00  56.3  1.71   0.0  1.00  1.00  1.00
 2020 120   316   316  31.6 -31.6 5.480   3.5  0.00  0.00  0.00  0.00 -0.06  0.00  0.00  0.30  0.00 33.52  1.00  57.8  1.72   0.0  1.00  1.00  1.00
 2020 121   317   317  29.9 -29.9 5.492   3.1  0.00  0.00  0.00  0.00 -0.06  0.00  0.00  0.27  0.00 41.99  1.00  66.5  1.58   0.0  1.00  1.00  1.00
 2020 122   318   318  29.9 -29.9 5.506   3.6  0.00  0.00  0.00  0.00 -0.06  0.00  0.00  0.19  0.00 42.53  1.00  71.5  1.68   0.0  1.00  1.00  1.00
 2020 123   319   319  29.8 -29.8 5.522   3.6  0.00  0.00  0.00  0.00 -0.06  0.00  0.00  0.14  0.00 40.90  1.00  67.2  1.64   0.0  1.00  1.00  1.00
 2020 124   320   320  28.6 -28.6 5.538   3.6  0.00  0.00  0.00  0.00 -0.06  0.00  0.00  0.12  0.00 44.23  1.00  68.8  1.56   0.0  1.00  1.00  1.00
 2020 125   321   321  29.0 -29.0 5.555   4.0  0.00  0.00  0.00  0.00 -0.06  0.00  0.00  0.11  0.00 40.04  1.00  67.9  1.70   0.0  1.00  1.00  1.00
 2020 126   322   322  30.1 -30.1 5.573   3.9  0.00  0.00  0.00  0.00 -0.06  0.00  0.00  0.11  0.00 36.85  1.00  63.4  1.72   0.0  1.00  1.00  1.00
 2020 127   323   323  30.6 -30.6 5.587   3.5  0.00  0.00  0.00  0.00 -0.06  0.00  0.00  0.16  0.00 34.52  1.00  60.2  1.74   0.0  1.00  1.00  1.00
 2020 128   324   324  29.9 -29.9 5.601   3.4  0.00  0.00  0.00  0.00 -0.06  0.00  0.00  0.21  0.00 37.20  1.00  57.4  1.54   0.0  1.00  1.00  1.00
 2020 129   325   325  29.3 -29.3 5.614   3.6  0.00  0.00  0.00  0.00 -0.06  0.00  0.00  0.26  0.00 37.87  1.00  54.8  1.45   0.0  1.00  1.00  1.00
 2020 130   326   326  28.5 -28.5 5.627   3.8  0.00  0.00  0.00  0.00 -0.06  0.00  0.00  0.31  0.00 33.03  1.00  58.8  1.78   0.0  1.00  1.00  1.00
 2020 131   327   327  29.5 -29.5 5.643   4.0  0.00  0.00  0.00  0.00 -0.06  0.00  0.00  0.22  0.00 38.21  1.00  60.2  1.58   0.0  1.00  1.00  1.00
 2020 132   328   328  29.1 -29.1 5.657   3.7  0.00  0.00  0.00  0.00 -0.06  0.00  0.00  0.20  0.00 36.20  1.00  56.9  1.57   0.0  1.00  1.00  1.00
 2020 133   329   329  29.4 -29.4 5.672   3.8  0.00  0.00  0.00  0.00 -0.06  0.00  0.00  0.23  0.00 34.10  1.00  53.8  1.58   0.0  1.00  1.00  1.00
 2020 134   330   330  28.5 -28.5 5.686   3.7  0.00  0.00  0.00  0.00 -0.06  0.00  0.00  0.28  0.00 32.59  1.00  52.6  1.61   0.0  1.00  1.00  1.00
 2020 135   331   331  29.8 -29.8 5.700   4.0  0.00  0.00  0.00  0.00 -0.06  0.00  0.00  0.30  0.00 29.09  1.00  49.5  1.70   0.0  1.00  1.00  1.00
 2020 136   332   332  29.6 -29.6 5.711   3.6  0.00  0.00  0.03  0.00 -0.06  0.00  0.00  0.36  0.00 36.37  1.00  58.3  1.60   0.0  1.00  1.00  1.00
 2020 137   333   333  30.0 -30.0 5.726   3.7  0.00  0.00  0.00  0.00 -0.06  0.00  0.00  0.21  0.00 33.73  1.00  55.0  1.63   0.0  1.00  1.00  1.00
 2020 138   334   334  30.9 -30.9 5.739   3.6  0.00  0.00  0.00  0.00 -0.06  0.00  0.00  0.24  0.00 29.46  1.00  51.8  1.76   0.0  1.00  1.00  1.00
 2020 139   335   335  30.4 -30.4 5.751   3.3  0.00  0.00  0.00  0.00 -0.06  0.00  0.00  0.30  0.00 33.85  1.00  50.5  1.49   0.0  1.00  1.00  1.00
 2020 140   336   336  29.4 -29.4 5.763   3.5  0.00  0.00  0.00  0.00 -0.06  0.00  0.00  0.32  0.00 30.23  1.00  47.8  1.58   0.0  1.00  1.00  1.00
 2020 141   337   337  29.4 -29.4 5.775   3.8  0.00  0.00  0.05  0.00 -0.06  0.00  0.00  0.36  0.00 34.26  1.00  52.5  1.53   0.0  1.00  1.00  1.00
 2020 142   338   338  29.4 -29.4 5.788   3.7  0.00  0.00  0.00  0.00 -0.06  0.00  0.00  0.28  0.00 55.73  1.00  85.1  1.53   0.0  1.00  1.00  1.00
 2020 143   339   339  29.8 -29.8 5.807   3.8  0.00  0.00  0.00  0.00 -0.06  0.00  0.00  0.03  0.00 59.53  1.00  90.0  1.51   0.0  1.00  1.00  1.00
 2020 144   340   340  30.4 -30.4 5.825   3.6  0.00  0.00  0.00  0.00 -0.06  0.00  0.00  0.01  0.00 52.65  1.00  89.4  1.70   0.0  1.00  1.00  1.00
 2020 145   341   341  28.2 -28.2 5.842   3.5  0.00  0.00  0.00  0.00 -0.06  0.00  0.00  0.00  0.00 63.22  1.00  96.7  1.53   0.0  1.00  1.00  1.00
 2020 146   342   342  28.1 -28.1 5.862   4.1  0.00  0.00  0.00  0.00 -0.06  0.00  0.00  0.00  0.00 59.87  1.00  93.2  1.56   0.0  1.00  1.00  1.00
 2020 147   343   343  30.4 -30.4 5.883   4.1  0.00  0.00  0.00  0.00 -0.06  0.00  0.00  0.00  0.00 53.34  1.00  89.6  1.68   0.0  1.00  1.00  1.00
 2020 148   344   344  29.5 -29.5 5.900   3.5  0.00  0.00  0.00  0.00 -0.06  0.00  0.00  0.00  0.00 56.50  1.00  86.1  1.52   0.0  1.00  1.00  1.00
 2020 149   345   345  28.3 -28.3 5.919   3.7  0.00  0.00  0.00  0.00 -0.06  0.00  0.00  0.01  0.00 63.24  1.00 109.3  1.73   0.0  1.00  1.00  1.00
 2020 150   346   346  28.6 -28.6 5.939   4.0  0.00  0.00  0.00  0.00 -0.06  0.00  0.00  0.00  0.00 67.88  1.00 115.5  1.70   0.0  1.00  1.00  1.00
 2020 151   347   347  29.2 -29.2 5.959   4.0  0.00  0.00  0.00  0.00 -0.06  0.00  0.00  0.00  0.00 69.13  1.00 113.2  1.64   0.0  1.00  1.00  1.00
 2020 152   348   348  30.0 -30.0 5.978   3.8  0.00  0.00  0.00  0.00 -0.06  0.00  0.00  0.00  0.00 64.60  1.00 110.7  1.71   0.0  1.00  1.00  1.00
 2020 153   349   349  26.3 -26.3 5.996   3.6  0.00  0.00  0.00  0.00 -0.06  0.00  0.00  0.00  0.00 99.90  1.00 162.6  1.39   0.0  1.00  1.00  1.00
 2020 154   350   350  28.0 -28.0 6.061  13.1  0.00  0.00  0.00  0.00 -0.06  0.00  0.00  0.00  0.00 94.69  1.00 163.1  1.72   0.0  1.00  1.00  1.00
 2020 155   351   351  29.0 -29.0 6.081   4.1  0.00  0.00  0.00  0.00 -0.06  0.00  0.00  0.00  0.00 94.20  1.00 162.1  1.72   0.0  1.00  1.00  1.00
 2020 156   352   352  28.2 -28.2 6.101   3.8  0.00  0.00  0.00  0.00 -0.06  0.00  0.00  0.00  0.00 99.90  1.00 158.3  1.58   0.0  1.00  1.00  1.00
 2020 157   353   353  29.1 -29.1 6.121   4.1  0.00  0.00  0.00  0.00 -0.06  0.00  0.00  0.00  0.00 90.54  1.00 154.6  1.71   0.0  1.00  1.00  1.00
 2020 158   354   354  27.6 -27.6 6.140   3.8  0.00  0.00  0.00  0.00 -0.06  0.00  0.00  0.00  0.00 99.90  1.00 154.0  1.39   0.0  1.00  1.00  1.00
 2020 159   355   355  28.0 -28.0 6.161   4.2  0.00  0.00  0.00  0.00 -0.06  0.00  0.00  0.00  0.00 91.62  1.00 150.0  1.64   0.0  1.00  1.00  1.00
 2020 160   356   356  27.9 -27.9 6.182   4.1  0.00  0.00  0.00  0.00 -0.06  0.00  0.00  0.00  0.00 99.90  1.00 165.9  1.51   0.0  1.00  1.00  1.00
 2020 161   357   357  28.0 -28.0 6.203   4.2  0.00  0.00  0.00  0.00 -0.06  0.00  0.00  0.00  0.00 99.90  1.00 158.7  1.57   0.0  1.00  1.00  1.00
 2020 162   358   358  28.2 -28.2 6.224   4.1  0.00  0.00  0.00  0.00 -0.06  0.00  0.00  0.00  0.00 99.74  1.00 155.6  1.56   0.0  1.00  1.00  1.00
 2020 163   359   359  26.5 -26.5 6.244   4.1  0.00  0.00  0.00  0.00 -0.06  0.00  0.00  0.00  0.00 99.90  1.00 152.2  1.41   0.0  1.00  1.00  1.00
 2020 164   360   360  27.2 -27.2 6.267   4.6  0.00  0.00  0.00  0.00 -0.06  0.00  0.00  0.00  0.00 96.93  1.00 149.2  1.54   0.0  1.00  1.00  1.00
 2020 165   361   361  27.3 -27.3 6.289   4.4  0.00  0.00  0.00  0.00 -0.06  0.00  0.00  0.00  0.00 99.90  1.00 181.2  1.49   0.0  1.00  1.00  1.00
 2020 166   362   362  27.9 -27.9 6.310   4.3  0.00  0.00  0.00  0.00 -0.06  0.00  0.00  0.00  0.00 99.90  1.00 162.8  1.58   0.0  1.00  1.00  1.00
 2020 167   363   363  29.2 -29.2 6.331   4.2  0.00  0.00  0.00  0.00 -0.06  0.00  0.00  0.00  0.00 98.66  1.00 158.5  1.61   0.0  1.00  1.00  1.00
 2020 168   364   364  28.6 -28.6 6.350   3.8  0.00  0.00  0.00  0.00 -0.06  0.00  0.00  0.00  0.00 88.55  1.00 154.8  1.75   0.0  1.00  1.00  1.00
 2020 169   365   365  28.5 -28.5 6.370   4.0  0.00  0.00  0.00  0.00 -0.06  0.00  0.00  0.00  0.00 99.90  1.00 153.8  1.44   0.0  1.00  1.00  1.00
 2020 170   366   366  27.0 -27.0 6.390   4.0  0.00  0.00  0.00  0.00 -0.06  0.00  0.00  0.00  0.00 95.56  1.00 154.2  1.61   0.0  1.00  1.00  1.00
 2020 171   367   367  28.0 -28.0 6.412   4.4  0.00  0.00  0.00  0.00 -0.06  0.00  0.00  0.00  0.00 87.52  1.00 151.3  1.73   0.0  1.00  1.00  1.00
 2020 172   368   368  28.2 -28.2 6.433   4.1  0.00  0.00  0.00  0.00 -0.06  0.00  0.00  0.00  0.00 83.57  1.00 147.4  1.76   0.0  1.00  1.00  1.00
 2020 173   369   369  27.6 -27.6 6.453   4.1  0.00  0.00  0.00  0.00 -0.06  0.00  0.00  0.00  0.00 99.90  1.00 145.9  1.45   0.0  1.00  1.00  1.00
 2020 174   370   370  26.6 -26.6 6.475   4.2  0.00  0.00  0.00  0.00 -0.06  0.00  0.00  0.00  0.00 88.00  1.00 149.0  1.69   0.0  1.00  1.00  1.00
 2020 175   371   371  27.5 -27.5 6.497   4.5  0.00  0.00  0.00  0.00 -0.06  0.00  0.00  0.00  0.00 80.72  1.00 145.3  1.80   0.0  1.00  1.00  1.00
 2020 176   372   372  26.8 -26.8 6.519   4.3  0.00  0.00  0.00  0.00 -0.06  0.00  0.00  0.00  0.00 91.18  1.00 144.8  1.59   0.0  1.00  1.00  1.00
 2020 177   373   373  27.2 -27.2 6.541   4.5  0.00  0.00  0.00  0.00 -0.06  0.00  0.00  0.00  0.00 78.87  1.00 141.0  1.79   0.0  1.00  1.00  1.00
 2020 178   374   374  26.5 -26.5 6.563   4.4  0.00  0.00  0.00  0.00 -0.06  0.00  0.00  0.00  0.00 86.80  1.00 138.1  1.59   0.0  1.00  1.00  1.00
 2020 179   375   375  27.4 -27.4 6.586   4.6  0.00  0.00  0.00  0.00 -0.06  0.00  0.00  0.00  0.00 81.14  1.00 135.0  1.66   0.0  1.00  1.00  1.00
 2020 180   376   376  26.6 -26.6 6.607   4.3  0.00  0.00  0.00  0.00 -0.06  0.00  0.00  0.00  0.00 83.98  1.00 141.7  1.69   0.0  1.00  1.00  1.00
 2020 181   377   377  26.0 -26.0 6.630   4.5  0.00  0.00  0.00  0.00 -0.06  0.00  0.00  0.00  0.00 98.92  1.00 141.5  1.43   0.0  1.00  1.00  1.00
 2020 182   378   378  27.2 -27.2 6.654   4.7  0.00  0.00  0.00  0.00 -0.06  0.00  0.00  0.00  0.00 91.17  1.00 143.1  1.57   0.0  1.00  1.00  1.00
 2020 183   379   379  28.1 -28.1 6.675   4.4  0.00  0.00  0.00  0.00 -0.06  0.00  0.00  0.00  0.00 79.42  1.00 139.8  1.76   0.0  1.00  1.00  1.00
 2020 184   380   380  28.5 -28.5 6.696   4.1  0.00  0.00  0.00  0.00 -0.06  0.00  0.00  0.00  0.00 76.85  1.00 136.4  1.77   0.0  1.00  1.00  1.00
 2020 185   381   381  26.7 -26.7 6.716   4.0  0.00  0.00  0.00  0.00 -0.06  0.00  0.00  0.00  0.00 96.33  1.00 154.2  1.60   0.0  1.00  1.00  1.00
 2020 186   382   382  25.2 -25.2 6.739   4.5  0.00  0.00  0.00  0.00 -0.06  0.00  0.00  0.00  0.00 99.45  1.00 155.4  1.56   0.0  1.00  1.00  1.00
 2020 187   383   383  26.8 -26.8 6.763   4.9  0.00  0.00  0.00  0.00 -0.06  0.00  0.00  0.00  0.00 96.89  1.00 154.3  1.59   0.0  1.00  1.00  1.00
 2020 188   384   384  27.3 -27.3 6.786   4.5  0.00  0.00  0.00  0.00 -0.06  0.00  0.00  0.00  0.00 86.74  1.00 151.2  1.74   0.0  1.00  1.00  1.00
 2020 189   385   385  26.6 -26.6 6.807   4.3  0.00  0.00  0.00  0.00 -0.06  0.00  0.00  0.00  0.00 89.04  1.00 151.1  1.70   0.0  1.00  1.00  1.00
 2020 190   386   386  27.0 -27.0 6.830   4.5  0.00  0.00  0.00  0.00 -0.06  0.00  0.00  0.00  0.00 85.09  1.00 147.6  1.73   0.0  1.00  1.00  1.00
 2020 191   387   387  27.0 -27.0 6.852   4.4  0.00  0.00  0.00  0.00 -0.06  0.00  0.00  0.00  0.00 86.93  1.00 144.3  1.66   0.0  1.00  1.00  1.00
 2020 192   388   388  24.8 -24.8 6.874   4.4  0.00  0.01  0.00  0.00 -0.06  0.00  0.00  0.00  0.00 99.90  1.00 188.5  1.63   0.0  1.00  1.00  1.00
 2020 193   389   389  25.5 -25.5 6.899   5.0  0.00  0.00  0.00  0.00 -0.06  0.00  0.00  0.00  0.00 99.90  1.00 179.0  1.60   0.0  1.00  1.00  1.00
 2020 194   390   390  26.5 -26.5 6.924   4.8  0.00  0.00  0.00  0.00 -0.06  0.00  0.00  0.00  0.00 96.99  1.00 162.4  1.67   0.0  1.00  1.00  1.00
 2020 195   391   391  26.8 -26.8 6.946   4.6  0.00  0.00  0.00  0.00 -0.06  0.00  0.00  0.00  0.00 94.71  1.00 156.0  1.65   0.0  1.00  1.00  1.00
 2020 196   392   392  25.5 -25.5 6.969   4.5  0.00  0.00  0.00  0.00 -0.06  0.00  0.00  0.00  0.00 99.90  1.00 161.8  1.59   0.0  1.00  1.00  1.00
 2020 197   393   393  25.8 -25.8 6.993   4.9  0.00  0.00  0.00  0.00 -0.06  0.00  0.00  0.00  0.00 98.16  1.00 156.9  1.60   0.0  1.00  1.00  1.00
 2020 198   394   394  26.5 -26.5 7.048  11.0  0.00  0.00  0.00  0.00 -0.06  0.00  0.00  0.00  0.00 99.90  1.00 158.8  1.54   0.0  1.00  1.00  1.00
 2020 199   395   395  26.0 -26.0 7.071   4.6  0.00  0.00  0.00  0.00 -0.06  0.00  0.00  0.00  0.00 99.90  1.00 157.4  1.56   0.0  1.00  1.00  1.00
 2020 200   396   396  26.5 -26.5 7.095   4.7  0.00  0.00  0.00  0.00 -0.06  0.00  0.00  0.00  0.00 94.56  1.00 167.3  1.77   0.0  1.00  1.00  1.00
 2020 201   397   397  26.3 -26.3 7.117   4.6  0.00  0.00  0.00  0.00 -0.06  0.00  0.00  0.00  0.00 99.90  1.00 169.6  1.55   0.0  1.00  1.00  1.00
 2020 202   398   398  25.8 -25.8 7.141   4.6  0.00  0.00  0.00  0.00 -0.06  0.00  0.00  0.00  0.00 99.90  1.00 166.6  1.61   0.0  1.00  1.00  1.00
 2020 203   399   399  26.5 -26.5 7.164   4.8  0.00  0.00  0.00  0.00 -0.06  0.00  0.00  0.00  0.00 98.87  1.00 158.6  1.60   0.0  1.00  1.00  1.00
 2020 204   400   400  27.0 -27.0 7.187   4.6  0.00  0.00  0.00  0.00 -0.06  0.00  0.00  0.00  0.00 90.75  1.00 158.6  1.75   0.0  1.00  1.00  1.00
 2020 205   401   401  25.2 -25.2 7.209   4.4  0.00  0.00  0.00  0.00 -0.06  0.00  0.00  0.00  0.00 87.14  1.00 155.2  1.78   0.0  1.00  1.00  1.00
 2020 206   402   402  26.2 -26.2 7.234   4.9  0.00  0.00  0.00  0.00 -0.06  0.00  0.00  0.00  0.00 92.11  1.00 152.3  1.65   0.0  1.00  1.00  1.00
 2020 207   403   403  25.8 -25.8 7.257   4.7  0.00  0.00  0.00  0.00 -0.06  0.00  0.00  0.00  0.00 99.90  1.00 149.6  1.48   0.0  1.00  1.00  1.00
 2020 208   404   404  26.8 -26.8 7.281   4.8  0.00  0.00  0.00  0.00 -0.06  0.00  0.00  0.00  0.00 89.27  1.00 146.7  1.64   0.0  1.00  1.00  1.00
 2020 209   405   405  25.0 -25.0 7.304   4.5  0.00  0.00  0.00  0.00 -0.06  0.00  0.00  0.00  0.00 96.59  1.00 144.5  1.50   0.0  1.00  1.00  1.00
