*Soil Carbon Balance Summary

*DSSAT Cropping System Model Ver. 4.8.0.019 -develop  DEC 23, 2021 14:23:35
!                             <----------- Initial State Variables ----------><------------ Final State Variables -----------><------------ Added -----------><-Lost-><-Balance>
!                             <-------- SOM-C -------><-------- FOM-C -------><-------- SOM-C -------><-------- FOM-C -------><---OM---><Senesced><--HarvRes-><--CO2->
!                                     Surf        Soil        Surf        Soil        Surf        Soil        Surf        Soil 
@Run FILEX               TN CR       SC0Di      SOMCTi       LC0Di       LCTDi        SC0D       SOMCT        LC0D        LCTD      OMAC     SENCC      HRCH     CO2TC    CUMBAL
   1 UYAG1701.CSX         1 CS        0.00    93798.50        0.00        0.00        0.00    92383.59      634.47      469.37      0.00   1103.84      0.00   1414.93      0.02
   2 UYAG1701.CSX         2 CS        0.00    93798.50        0.00        0.00        0.00    92383.59      634.47      469.37      0.00   1103.84      0.00   1414.93      0.02
   3 UYAG1701.CSX         3 CS        0.00    93798.50        0.00        0.00        0.00    92383.59      634.47      469.37      0.00   1103.84      0.00   1414.93      0.02
   4 UYAG1701.CSX         4 CS        0.00    93798.50        0.00        0.00        0.00    92383.59      634.47      469.37      0.00   1103.84      0.00   1414.93      0.02
   5 UYAG1701.CSX         5 CS        0.00    93798.50        0.00        0.00        0.00    92383.59      634.47      469.37      0.00   1103.84      0.00   1414.93      0.02
   6 UYAG1701.CSX         6 CS        0.00    93798.50        0.00        0.00        0.00    92383.59      634.47      469.37      0.00   1103.84      0.00   1414.93      0.02
   7 UYAG1701.CSX         7 CS        0.00    93798.50        0.00        0.00        0.00    92383.59      634.47      469.37      0.00   1103.84      0.00   1414.93      0.02
   8 UYAG1701.CSX         8 CS        0.00    93798.50        0.00        0.00        0.00    92383.59      634.47      469.37      0.00   1103.84      0.00   1414.93      0.02
   9 UYAG1701.CSX         9 CS        0.00    93798.50        0.00        0.00        0.00    92383.59      634.47      469.37      0.00   1103.84      0.00   1414.93      0.02
  10 UYAG1701.CSX        10 CS        0.00    93798.50        0.00        0.00        0.00    92383.59      634.47      469.37      0.00   1103.84      0.00   1414.93      0.02
  11 UYAG1701.CSX        11 CS        0.00    93798.50        0.00        0.00        0.00    92383.59      634.47      469.37      0.00   1103.84      0.00   1414.93      0.02
  12 UYAG1701.CSX        12 CS        0.00    93798.50        0.00        0.00        0.00    92383.59      634.47      469.37      0.00   1103.84      0.00   1414.93      0.02
  13 UYAG1701.CSX        13 CS        0.00    93798.50        0.00        0.00        0.00    92383.59      634.47      469.37      0.00   1103.84      0.00   1414.93      0.02
  14 UYAG1701.CSX        14 CS        0.00    93798.50        0.00        0.00        0.00    92383.59      634.47      469.37      0.00   1103.84      0.00   1414.93      0.02
  15 UYAG1701.CSX        15 CS        0.00    93798.50        0.00        0.00        0.00    92383.59      634.47      469.37      0.00   1103.84      0.00   1414.93      0.02
  16 UYAG1701.CSX        16 CS        0.00    93798.50        0.00        0.00        0.00    92383.59      634.47      469.37      0.00   1103.84      0.00   1414.93      0.02
  17 UYAG1701.CSX        17 CS        0.00    93798.50        0.00        0.00        0.00    92383.59      634.47      469.37      0.00   1103.84      0.00   1414.93      0.02
  18 UYAG1701.CSX        18 CS        0.00    93798.50        0.00        0.00        0.00    92383.59      634.47      469.37      0.00   1103.84      0.00   1414.93      0.02
  19 UYAG1701.CSX        19 CS        0.00    93798.50        0.00        0.00        0.00    92383.59      634.47      469.37      0.00   1103.84      0.00   1414.93      0.02
  20 UYAG1701.CSX        20 CS        0.00    93798.50        0.00        0.00        0.00    92383.59      634.47      469.37      0.00   1103.84      0.00   1414.93      0.02
  21 UYAG1701.CSX        21 CS        0.00    93798.50        0.00        0.00        0.00    92383.59      634.47      469.37      0.00   1103.84      0.00   1414.93      0.02
  22 UYAG1701.CSX        22 CS        0.00    93798.50        0.00        0.00        0.00    92383.59      634.47      469.37      0.00   1103.84      0.00   1414.93      0.02
  23 UYAG1701.CSX        23 CS        0.00    93798.50        0.00        0.00        0.00    92383.59      634.47      469.37      0.00   1103.84      0.00   1414.93      0.02
  24 UYAG1701.CSX        24 CS        0.00    93798.50        0.00        0.00        0.00    92383.59      634.47      469.37      0.00   1103.84      0.00   1414.93      0.02
  25 UYAG1701.CSX        25 CS        0.00    93798.50        0.00        0.00        0.00    92383.59      634.47      469.37      0.00   1103.84      0.00   1414.93      0.02
  26 UYAG1701.CSX        26 CS        0.00    93798.50        0.00        0.00        0.00    92383.59      634.47      469.37      0.00   1103.84      0.00   1414.93      0.02
  27 UYAG1701.CSX        27 CS        0.00    93798.50        0.00        0.00        0.00    92383.59      634.47      469.37      0.00   1103.84      0.00   1414.93      0.02
  28 UYAG1701.CSX        28 CS        0.00    93798.50        0.00        0.00        0.00    92383.59      634.47      469.37      0.00   1103.84      0.00   1414.93      0.02
  29 UYAG1701.CSX        29 CS        0.00    93798.50        0.00        0.00        0.00    92383.59      634.47      469.37      0.00   1103.84      0.00   1414.93      0.02
  30 UYAG1701.CSX        30 CS        0.00    93798.50        0.00        0.00        0.00    92383.59      634.47      469.37      0.00   1103.84      0.00   1414.93      0.02
  31 UYAG1701.CSX        31 CS        0.00    93798.50        0.00        0.00        0.00    92383.59      634.47      469.37      0.00   1103.84      0.00   1414.93      0.02
  32 UYAG1701.CSX        32 CS        0.00    93798.50        0.00        0.00        0.00    92383.59      634.47      469.37      0.00   1103.84      0.00   1414.93      0.02
  33 UYAG1701.CSX        33 CS        0.00    93798.50        0.00        0.00        0.00    92383.59      634.47      469.37      0.00   1103.84      0.00   1414.93      0.02
  34 UYAG1701.CSX        34 CS        0.00    93798.50        0.00        0.00        0.00    92383.59      634.47      469.37      0.00   1103.84      0.00   1414.93      0.02
  35 UYAG1701.CSX        35 CS        0.00    93798.50        0.00        0.00        0.00    92383.59      634.47      469.37      0.00   1103.84      0.00   1414.93      0.02
  36 UYAG1701.CSX        36 CS        0.00    93798.50        0.00        0.00        0.00    92383.59      634.47      469.37      0.00   1103.84      0.00   1414.93      0.02
  37 UYAG1701.CSX        37 CS        0.00    93798.50        0.00        0.00        0.00    92383.59      634.47      469.37      0.00   1103.84      0.00   1414.93      0.02
  38 UYAG1701.CSX        38 CS        0.00    93798.50        0.00        0.00        0.00    92383.59      634.47      469.37      0.00   1103.84      0.00   1414.93      0.02
  39 UYAG1701.CSX        39 CS        0.00    93798.50        0.00        0.00        0.00    92383.59      634.47      469.37      0.00   1103.84      0.00   1414.93      0.02
  40 UYAG1701.CSX        40 CS        0.00    93798.50        0.00        0.00        0.00    92383.59      634.47      469.37      0.00   1103.84      0.00   1414.93      0.02
  41 UYAG1701.CSX        41 CS        0.00    93798.50        0.00        0.00        0.00    92383.59      634.47      469.37      0.00   1103.84      0.00   1414.93      0.02
  42 UYAG1701.CSX        42 CS        0.00    93798.50        0.00        0.00        0.00    92383.59      634.47      469.37      0.00   1103.84      0.00   1414.93      0.02
  43 UYAG1701.CSX        43 CS        0.00    93798.50        0.00        0.00        0.00    92383.59      634.47      469.37      0.00   1103.84      0.00   1414.93      0.02
  44 UYAG1701.CSX        44 CS        0.00    93798.50        0.00        0.00        0.00    92383.59      634.47      469.37      0.00   1103.84      0.00   1414.93      0.02
  45 UYAG1701.CSX        45 CS        0.00    93798.50        0.00        0.00        0.00    92383.59      634.47      469.37      0.00   1103.84      0.00   1414.93      0.02
  46 UYAG1701.CSX        46 CS        0.00    93798.50        0.00        0.00        0.00    92383.59      634.47      469.37      0.00   1103.84      0.00   1414.93      0.02
  47 UYAG1701.CSX        47 CS        0.00    93798.50        0.00        0.00        0.00    92383.59      634.47      469.37      0.00   1103.84      0.00   1414.93      0.02
  48 UYAG1701.CSX        48 CS        0.00    93798.50        0.00        0.00        0.00    92383.59      634.47      469.37      0.00   1103.84      0.00   1414.93      0.02
  49 UYAG1701.CSX        49 CS        0.00    93798.50        0.00        0.00        0.00    92383.59      634.47      469.37      0.00   1103.84      0.00   1414.93      0.02
  50 UYAG1701.CSX        50 CS        0.00    93798.50        0.00        0.00        0.00    92383.59      634.47      469.37      0.00   1103.84      0.00   1414.93      0.02
  51 UYAG1701.CSX        51 CS        0.00    93798.50        0.00        0.00        0.00    92383.59      634.47      469.37      0.00   1103.84      0.00   1414.93      0.02
  52 UYAG1701.CSX        52 CS        0.00    93798.50        0.00        0.00        0.00    92383.59      634.47      469.37      0.00   1103.84      0.00   1414.93      0.02
  53 UYAG1701.CSX        53 CS        0.00    93798.50        0.00        0.00        0.00    92383.59      634.47      469.37      0.00   1103.84      0.00   1414.93      0.02
  54 UYAG1701.CSX        54 CS        0.00    93798.50        0.00        0.00        0.00    92383.59      634.47      469.37      0.00   1103.84      0.00   1414.93      0.02
  55 UYAG1701.CSX        55 CS        0.00    93798.50        0.00        0.00        0.00    92383.59      634.47      469.37      0.00   1103.84      0.00   1414.93      0.02
  56 UYAG1701.CSX        56 CS        0.00    93798.50        0.00        0.00        0.00    92383.59      634.47      469.37      0.00   1103.84      0.00   1414.93      0.02
  57 UYAG1701.CSX        57 CS        0.00    93798.50        0.00        0.00        0.00    92383.59      634.47      469.37      0.00   1103.84      0.00   1414.93      0.02
  58 UYAG1701.CSX        58 CS        0.00    93798.50        0.00        0.00        0.00    92383.59      634.47      469.37      0.00   1103.84      0.00   1414.93      0.02
  59 UYAG1701.CSX        59 CS        0.00    93798.50        0.00        0.00        0.00    92383.59      634.47      469.37      0.00   1103.84      0.00   1414.93      0.02
  60 UYAG1701.CSX        60 CS        0.00    93798.50        0.00        0.00        0.00    92383.59      634.47      469.37      0.00   1103.84      0.00   1414.93      0.02
  61 UYAG1701.CSX        61 CS        0.00    93798.50        0.00        0.00        0.00    92383.59      634.47      469.37      0.00   1103.84      0.00   1414.93      0.02
  62 UYAG1701.CSX        62 CS        0.00    93798.50        0.00        0.00        0.00    92383.59      634.47      469.37      0.00   1103.84      0.00   1414.93      0.02
  63 UYAG1701.CSX        63 CS        0.00    93798.50        0.00        0.00        0.00    92383.59      634.47      469.37      0.00   1103.84      0.00   1414.93      0.02
  64 UYAG1701.CSX        64 CS        0.00    93798.50        0.00        0.00        0.00    92383.59      634.47      469.37      0.00   1103.84      0.00   1414.93      0.02
  65 UYAG1701.CSX        65 CS        0.00    93798.50        0.00        0.00        0.00    92383.59      634.47      469.37      0.00   1103.84      0.00   1414.93      0.02
  66 UYAG1701.CSX        66 CS        0.00    93798.50        0.00        0.00        0.00    92383.59      634.47      469.37      0.00   1103.84      0.00   1414.93      0.02
  67 UYAG1701.CSX        67 CS        0.00    93798.50        0.00        0.00        0.00    92383.59      634.47      469.37      0.00   1103.84      0.00   1414.93      0.02
