*Soil Carbon Balance

*DSSAT Cropping System Model Ver. 4.8.0.019 -develop  DEC 23, 2021 14:23:35

*RUN   1        : IITA-TMS-IBA000070        CSYCA048 UYAG1701    1
 MODEL          : CSYCA048 - Cassava
 EXPERIMENT     : UYAG1701 CS UYT_GXE
 DATA PATH      :
 TREATMENT  1   : IITA-TMS-IBA000070        CSYCA048
  

!                                                 Initial               Final
!                                                Year/DOY            Year/DOY
!                                                2019-168            2019-168
! SOIL C BALANCE                                 --------- kg[C]/ha ---------
!  SOIL & SURFACE ORGANIC C
!   Soil Organic C                               93798.50            92383.59
!   Surface Organic C                                0.00                0.00
!   Soil Litter C                                    0.00              469.37
!   Surface Litter C                                 0.00              634.47
!                                                --------            --------
!   Total C in Soil and Surface Layers           93798.50            93487.43
!  ADDITIONS AND REMOVALS:
!   C in Harvest Residues from Previous              0.00
!   C from Organic Applications                      0.00
!   C in returned senesced material               1103.84
!   CO2-C emitted                                                     1414.93
!                                                --------            --------
! TOTAL C BALANCE                                94902.34            94902.36
!   Balance                                                             0.023

*DSSAT Cropping System Model Ver. 4.8.0.019 -develop  DEC 23, 2021 14:23:35

*RUN   2        : IITA-TMS-IBA30572         CSYCA048 UYAG1701    2
 MODEL          : CSYCA048 - Cassava
 EXPERIMENT     : UYAG1701 CS UYT_GXE
 DATA PATH      :
 TREATMENT  2   : IITA-TMS-IBA30572         CSYCA048
  

!                                                 Initial               Final
!                                                Year/DOY            Year/DOY
!                                                2019-168            2019-168
! SOIL C BALANCE                                 --------- kg[C]/ha ---------
!  SOIL & SURFACE ORGANIC C
!   Soil Organic C                               93798.50            92383.59
!   Surface Organic C                                0.00                0.00
!   Soil Litter C                                    0.00              469.37
!   Surface Litter C                                 0.00              634.47
!                                                --------            --------
!   Total C in Soil and Surface Layers           93798.50            93487.43
!  ADDITIONS AND REMOVALS:
!   C in Harvest Residues from Previous              0.00
!   C from Organic Applications                      0.00
!   C in returned senesced material               1103.84
!   CO2-C emitted                                                     1414.93
!                                                --------            --------
! TOTAL C BALANCE                                94902.34            94902.36
!   Balance                                                             0.023

*DSSAT Cropping System Model Ver. 4.8.0.019 -develop  DEC 23, 2021 14:23:36

*RUN   3        : IITA-TMS-IBA980581        CSYCA048 UYAG1701    3
 MODEL          : CSYCA048 - Cassava
 EXPERIMENT     : UYAG1701 CS UYT_GXE
 DATA PATH      :
 TREATMENT  3   : IITA-TMS-IBA980581        CSYCA048
  

!                                                 Initial               Final
!                                                Year/DOY            Year/DOY
!                                                2019-168            2019-168
! SOIL C BALANCE                                 --------- kg[C]/ha ---------
!  SOIL & SURFACE ORGANIC C
!   Soil Organic C                               93798.50            92383.59
!   Surface Organic C                                0.00                0.00
!   Soil Litter C                                    0.00              469.37
!   Surface Litter C                                 0.00              634.47
!                                                --------            --------
!   Total C in Soil and Surface Layers           93798.50            93487.43
!  ADDITIONS AND REMOVALS:
!   C in Harvest Residues from Previous              0.00
!   C from Organic Applications                      0.00
!   C in returned senesced material               1103.84
!   CO2-C emitted                                                     1414.93
!                                                --------            --------
! TOTAL C BALANCE                                94902.34            94902.36
!   Balance                                                             0.023

*DSSAT Cropping System Model Ver. 4.8.0.019 -develop  DEC 23, 2021 14:23:36

*RUN   4        : IITA-TMS-IBA982101        CSYCA048 UYAG1701    4
 MODEL          : CSYCA048 - Cassava
 EXPERIMENT     : UYAG1701 CS UYT_GXE
 DATA PATH      :
 TREATMENT  4   : IITA-TMS-IBA982101        CSYCA048
  

!                                                 Initial               Final
!                                                Year/DOY            Year/DOY
!                                                2019-168            2019-168
! SOIL C BALANCE                                 --------- kg[C]/ha ---------
!  SOIL & SURFACE ORGANIC C
!   Soil Organic C                               93798.50            92383.59
!   Surface Organic C                                0.00                0.00
!   Soil Litter C                                    0.00              469.37
!   Surface Litter C                                 0.00              634.47
!                                                --------            --------
!   Total C in Soil and Surface Layers           93798.50            93487.43
!  ADDITIONS AND REMOVALS:
!   C in Harvest Residues from Previous              0.00
!   C from Organic Applications                      0.00
!   C in returned senesced material               1103.84
!   CO2-C emitted                                                     1414.93
!                                                --------            --------
! TOTAL C BALANCE                                94902.34            94902.36
!   Balance                                                             0.023

*DSSAT Cropping System Model Ver. 4.8.0.019 -develop  DEC 23, 2021 14:23:36

*RUN   5        : TMEB419                   CSYCA048 UYAG1701    5
 MODEL          : CSYCA048 - Cassava
 EXPERIMENT     : UYAG1701 CS UYT_GXE
 DATA PATH      :
 TREATMENT  5   : TMEB419                   CSYCA048
  

!                                                 Initial               Final
!                                                Year/DOY            Year/DOY
!                                                2019-168            2019-168
! SOIL C BALANCE                                 --------- kg[C]/ha ---------
!  SOIL & SURFACE ORGANIC C
!   Soil Organic C                               93798.50            92383.59
!   Surface Organic C                                0.00                0.00
!   Soil Litter C                                    0.00              469.37
!   Surface Litter C                                 0.00              634.47
!                                                --------            --------
!   Total C in Soil and Surface Layers           93798.50            93487.43
!  ADDITIONS AND REMOVALS:
!   C in Harvest Residues from Previous              0.00
!   C from Organic Applications                      0.00
!   C in returned senesced material               1103.84
!   CO2-C emitted                                                     1414.93
!                                                --------            --------
! TOTAL C BALANCE                                94902.34            94902.36
!   Balance                                                             0.023

*DSSAT Cropping System Model Ver. 4.8.0.019 -develop  DEC 23, 2021 14:23:36

*RUN   6        : TMS13F1021P0008           CSYCA048 UYAG1701    6
 MODEL          : CSYCA048 - Cassava
 EXPERIMENT     : UYAG1701 CS UYT_GXE
 DATA PATH      :
 TREATMENT  6   : TMS13F1021P0008           CSYCA048
  

!                                                 Initial               Final
!                                                Year/DOY            Year/DOY
!                                                2019-168            2019-168
! SOIL C BALANCE                                 --------- kg[C]/ha ---------
!  SOIL & SURFACE ORGANIC C
!   Soil Organic C                               93798.50            92383.59
!   Surface Organic C                                0.00                0.00
!   Soil Litter C                                    0.00              469.37
!   Surface Litter C                                 0.00              634.47
!                                                --------            --------
!   Total C in Soil and Surface Layers           93798.50            93487.43
!  ADDITIONS AND REMOVALS:
!   C in Harvest Residues from Previous              0.00
!   C from Organic Applications                      0.00
!   C in returned senesced material               1103.84
!   CO2-C emitted                                                     1414.93
!                                                --------            --------
! TOTAL C BALANCE                                94902.34            94902.36
!   Balance                                                             0.023

*DSSAT Cropping System Model Ver. 4.8.0.019 -develop  DEC 23, 2021 14:23:37

*RUN   7        : TMS13F1049P0001           CSYCA048 UYAG1701    7
 MODEL          : CSYCA048 - Cassava
 EXPERIMENT     : UYAG1701 CS UYT_GXE
 DATA PATH      :
 TREATMENT  7   : TMS13F1049P0001           CSYCA048
  

!                                                 Initial               Final
!                                                Year/DOY            Year/DOY
!                                                2019-168            2019-168
! SOIL C BALANCE                                 --------- kg[C]/ha ---------
!  SOIL & SURFACE ORGANIC C
!   Soil Organic C                               93798.50            92383.59
!   Surface Organic C                                0.00                0.00
!   Soil Litter C                                    0.00              469.37
!   Surface Litter C                                 0.00              634.47
!                                                --------            --------
!   Total C in Soil and Surface Layers           93798.50            93487.43
!  ADDITIONS AND REMOVALS:
!   C in Harvest Residues from Previous              0.00
!   C from Organic Applications                      0.00
!   C in returned senesced material               1103.84
!   CO2-C emitted                                                     1414.93
!                                                --------            --------
! TOTAL C BALANCE                                94902.34            94902.36
!   Balance                                                             0.023

*DSSAT Cropping System Model Ver. 4.8.0.019 -develop  DEC 23, 2021 14:23:37

*RUN   8        : TMS13F1114P0001           CSYCA048 UYAG1701    8
 MODEL          : CSYCA048 - Cassava
 EXPERIMENT     : UYAG1701 CS UYT_GXE
 DATA PATH      :
 TREATMENT  8   : TMS13F1114P0001           CSYCA048
  

!                                                 Initial               Final
!                                                Year/DOY            Year/DOY
!                                                2019-168            2019-168
! SOIL C BALANCE                                 --------- kg[C]/ha ---------
!  SOIL & SURFACE ORGANIC C
!   Soil Organic C                               93798.50            92383.59
!   Surface Organic C                                0.00                0.00
!   Soil Litter C                                    0.00              469.37
!   Surface Litter C                                 0.00              634.47
!                                                --------            --------
!   Total C in Soil and Surface Layers           93798.50            93487.43
!  ADDITIONS AND REMOVALS:
!   C in Harvest Residues from Previous              0.00
!   C from Organic Applications                      0.00
!   C in returned senesced material               1103.84
!   CO2-C emitted                                                     1414.93
!                                                --------            --------
! TOTAL C BALANCE                                94902.34            94902.36
!   Balance                                                             0.023

*DSSAT Cropping System Model Ver. 4.8.0.019 -develop  DEC 23, 2021 14:23:37

*RUN   9        : TMS13F1126P0003           CSYCA048 UYAG1701    9
 MODEL          : CSYCA048 - Cassava
 EXPERIMENT     : UYAG1701 CS UYT_GXE
 DATA PATH      :
 TREATMENT  9   : TMS13F1126P0003           CSYCA048
  

!                                                 Initial               Final
!                                                Year/DOY            Year/DOY
!                                                2019-168            2019-168
! SOIL C BALANCE                                 --------- kg[C]/ha ---------
!  SOIL & SURFACE ORGANIC C
!   Soil Organic C                               93798.50            92383.59
!   Surface Organic C                                0.00                0.00
!   Soil Litter C                                    0.00              469.37
!   Surface Litter C                                 0.00              634.47
!                                                --------            --------
!   Total C in Soil and Surface Layers           93798.50            93487.43
!  ADDITIONS AND REMOVALS:
!   C in Harvest Residues from Previous              0.00
!   C from Organic Applications                      0.00
!   C in returned senesced material               1103.84
!   CO2-C emitted                                                     1414.93
!                                                --------            --------
! TOTAL C BALANCE                                94902.34            94902.36
!   Balance                                                             0.023

*DSSAT Cropping System Model Ver. 4.8.0.019 -develop  DEC 23, 2021 14:23:37

*RUN  10        : TMS13F1182P0002           CSYCA048 UYAG1701   10
 MODEL          : CSYCA048 - Cassava
 EXPERIMENT     : UYAG1701 CS UYT_GXE
 DATA PATH      :
 TREATMENT 10   : TMS13F1182P0002           CSYCA048
  

!                                                 Initial               Final
!                                                Year/DOY            Year/DOY
!                                                2019-168            2019-168
! SOIL C BALANCE                                 --------- kg[C]/ha ---------
!  SOIL & SURFACE ORGANIC C
!   Soil Organic C                               93798.50            92383.59
!   Surface Organic C                                0.00                0.00
!   Soil Litter C                                    0.00              469.37
!   Surface Litter C                                 0.00              634.47
!                                                --------            --------
!   Total C in Soil and Surface Layers           93798.50            93487.43
!  ADDITIONS AND REMOVALS:
!   C in Harvest Residues from Previous              0.00
!   C from Organic Applications                      0.00
!   C in returned senesced material               1103.84
!   CO2-C emitted                                                     1414.93
!                                                --------            --------
! TOTAL C BALANCE                                94902.34            94902.36
!   Balance                                                             0.023

*DSSAT Cropping System Model Ver. 4.8.0.019 -develop  DEC 23, 2021 14:23:37

*RUN  11        : TMS13F1304P0003           CSYCA048 UYAG1701   11
 MODEL          : CSYCA048 - Cassava
 EXPERIMENT     : UYAG1701 CS UYT_GXE
 DATA PATH      :
 TREATMENT 11   : TMS13F1304P0003           CSYCA048
  

!                                                 Initial               Final
!                                                Year/DOY            Year/DOY
!                                                2019-168            2019-168
! SOIL C BALANCE                                 --------- kg[C]/ha ---------
!  SOIL & SURFACE ORGANIC C
!   Soil Organic C                               93798.50            92383.59
!   Surface Organic C                                0.00                0.00
!   Soil Litter C                                    0.00              469.37
!   Surface Litter C                                 0.00              634.47
!                                                --------            --------
!   Total C in Soil and Surface Layers           93798.50            93487.43
!  ADDITIONS AND REMOVALS:
!   C in Harvest Residues from Previous              0.00
!   C from Organic Applications                      0.00
!   C in returned senesced material               1103.84
!   CO2-C emitted                                                     1414.93
!                                                --------            --------
! TOTAL C BALANCE                                94902.34            94902.36
!   Balance                                                             0.023

*DSSAT Cropping System Model Ver. 4.8.0.019 -develop  DEC 23, 2021 14:23:38

*RUN  12        : TMS13F1315P0008           CSYCA048 UYAG1701   12
 MODEL          : CSYCA048 - Cassava
 EXPERIMENT     : UYAG1701 CS UYT_GXE
 DATA PATH      :
 TREATMENT 12   : TMS13F1315P0008           CSYCA048
  

!                                                 Initial               Final
!                                                Year/DOY            Year/DOY
!                                                2019-168            2019-168
! SOIL C BALANCE                                 --------- kg[C]/ha ---------
!  SOIL & SURFACE ORGANIC C
!   Soil Organic C                               93798.50            92383.59
!   Surface Organic C                                0.00                0.00
!   Soil Litter C                                    0.00              469.37
!   Surface Litter C                                 0.00              634.47
!                                                --------            --------
!   Total C in Soil and Surface Layers           93798.50            93487.43
!  ADDITIONS AND REMOVALS:
!   C in Harvest Residues from Previous              0.00
!   C from Organic Applications                      0.00
!   C in returned senesced material               1103.84
!   CO2-C emitted                                                     1414.93
!                                                --------            --------
! TOTAL C BALANCE                                94902.34            94902.36
!   Balance                                                             0.023

*DSSAT Cropping System Model Ver. 4.8.0.019 -develop  DEC 23, 2021 14:23:38

*RUN  13        : TMS13F1376P0018           CSYCA048 UYAG1701   13
 MODEL          : CSYCA048 - Cassava
 EXPERIMENT     : UYAG1701 CS UYT_GXE
 DATA PATH      :
 TREATMENT 13   : TMS13F1376P0018           CSYCA048
  

!                                                 Initial               Final
!                                                Year/DOY            Year/DOY
!                                                2019-168            2019-168
! SOIL C BALANCE                                 --------- kg[C]/ha ---------
!  SOIL & SURFACE ORGANIC C
!   Soil Organic C                               93798.50            92383.59
!   Surface Organic C                                0.00                0.00
!   Soil Litter C                                    0.00              469.37
!   Surface Litter C                                 0.00              634.47
!                                                --------            --------
!   Total C in Soil and Surface Layers           93798.50            93487.43
!  ADDITIONS AND REMOVALS:
!   C in Harvest Residues from Previous              0.00
!   C from Organic Applications                      0.00
!   C in returned senesced material               1103.84
!   CO2-C emitted                                                     1414.93
!                                                --------            --------
! TOTAL C BALANCE                                94902.34            94902.36
!   Balance                                                             0.023

*DSSAT Cropping System Model Ver. 4.8.0.019 -develop  DEC 23, 2021 14:23:38

*RUN  14        : TMS13F1400P0001           CSYCA048 UYAG1701   14
 MODEL          : CSYCA048 - Cassava
 EXPERIMENT     : UYAG1701 CS UYT_GXE
 DATA PATH      :
 TREATMENT 14   : TMS13F1400P0001           CSYCA048
  

!                                                 Initial               Final
!                                                Year/DOY            Year/DOY
!                                                2019-168            2019-168
! SOIL C BALANCE                                 --------- kg[C]/ha ---------
!  SOIL & SURFACE ORGANIC C
!   Soil Organic C                               93798.50            92383.59
!   Surface Organic C                                0.00                0.00
!   Soil Litter C                                    0.00              469.37
!   Surface Litter C                                 0.00              634.47
!                                                --------            --------
!   Total C in Soil and Surface Layers           93798.50            93487.43
!  ADDITIONS AND REMOVALS:
!   C in Harvest Residues from Previous              0.00
!   C from Organic Applications                      0.00
!   C in returned senesced material               1103.84
!   CO2-C emitted                                                     1414.93
!                                                --------            --------
! TOTAL C BALANCE                                94902.34            94902.36
!   Balance                                                             0.023

*DSSAT Cropping System Model Ver. 4.8.0.019 -develop  DEC 23, 2021 14:23:38

*RUN  15        : TMS13F1461P0002           CSYCA048 UYAG1701   15
 MODEL          : CSYCA048 - Cassava
 EXPERIMENT     : UYAG1701 CS UYT_GXE
 DATA PATH      :
 TREATMENT 15   : TMS13F1461P0002           CSYCA048
  

!                                                 Initial               Final
!                                                Year/DOY            Year/DOY
!                                                2019-168            2019-168
! SOIL C BALANCE                                 --------- kg[C]/ha ---------
!  SOIL & SURFACE ORGANIC C
!   Soil Organic C                               93798.50            92383.59
!   Surface Organic C                                0.00                0.00
!   Soil Litter C                                    0.00              469.37
!   Surface Litter C                                 0.00              634.47
!                                                --------            --------
!   Total C in Soil and Surface Layers           93798.50            93487.43
!  ADDITIONS AND REMOVALS:
!   C in Harvest Residues from Previous              0.00
!   C from Organic Applications                      0.00
!   C in returned senesced material               1103.84
!   CO2-C emitted                                                     1414.93
!                                                --------            --------
! TOTAL C BALANCE                                94902.34            94902.36
!   Balance                                                             0.023

*DSSAT Cropping System Model Ver. 4.8.0.019 -develop  DEC 23, 2021 14:23:38

*RUN  16        : TMS13F2061P0005           CSYCA048 UYAG1701   16
 MODEL          : CSYCA048 - Cassava
 EXPERIMENT     : UYAG1701 CS UYT_GXE
 DATA PATH      :
 TREATMENT 16   : TMS13F2061P0005           CSYCA048
  

!                                                 Initial               Final
!                                                Year/DOY            Year/DOY
!                                                2019-168            2019-168
! SOIL C BALANCE                                 --------- kg[C]/ha ---------
!  SOIL & SURFACE ORGANIC C
!   Soil Organic C                               93798.50            92383.59
!   Surface Organic C                                0.00                0.00
!   Soil Litter C                                    0.00              469.37
!   Surface Litter C                                 0.00              634.47
!                                                --------            --------
!   Total C in Soil and Surface Layers           93798.50            93487.43
!  ADDITIONS AND REMOVALS:
!   C in Harvest Residues from Previous              0.00
!   C from Organic Applications                      0.00
!   C in returned senesced material               1103.84
!   CO2-C emitted                                                     1414.93
!                                                --------            --------
! TOTAL C BALANCE                                94902.34            94902.36
!   Balance                                                             0.023

*DSSAT Cropping System Model Ver. 4.8.0.019 -develop  DEC 23, 2021 14:23:39

*RUN  17        : TMS13F2207P0001           CSYCA048 UYAG1701   17
 MODEL          : CSYCA048 - Cassava
 EXPERIMENT     : UYAG1701 CS UYT_GXE
 DATA PATH      :
 TREATMENT 17   : TMS13F2207P0001           CSYCA048
  

!                                                 Initial               Final
!                                                Year/DOY            Year/DOY
!                                                2019-168            2019-168
! SOIL C BALANCE                                 --------- kg[C]/ha ---------
!  SOIL & SURFACE ORGANIC C
!   Soil Organic C                               93798.50            92383.59
!   Surface Organic C                                0.00                0.00
!   Soil Litter C                                    0.00              469.37
!   Surface Litter C                                 0.00              634.47
!                                                --------            --------
!   Total C in Soil and Surface Layers           93798.50            93487.43
!  ADDITIONS AND REMOVALS:
!   C in Harvest Residues from Previous              0.00
!   C from Organic Applications                      0.00
!   C in returned senesced material               1103.84
!   CO2-C emitted                                                     1414.93
!                                                --------            --------
! TOTAL C BALANCE                                94902.34            94902.36
!   Balance                                                             0.023

*DSSAT Cropping System Model Ver. 4.8.0.019 -develop  DEC 23, 2021 14:23:39

*RUN  18        : TMS14F1001P0004           CSYCA048 UYAG1701   18
 MODEL          : CSYCA048 - Cassava
 EXPERIMENT     : UYAG1701 CS UYT_GXE
 DATA PATH      :
 TREATMENT 18   : TMS14F1001P0004           CSYCA048
  

!                                                 Initial               Final
!                                                Year/DOY            Year/DOY
!                                                2019-168            2019-168
! SOIL C BALANCE                                 --------- kg[C]/ha ---------
!  SOIL & SURFACE ORGANIC C
!   Soil Organic C                               93798.50            92383.59
!   Surface Organic C                                0.00                0.00
!   Soil Litter C                                    0.00              469.37
!   Surface Litter C                                 0.00              634.47
!                                                --------            --------
!   Total C in Soil and Surface Layers           93798.50            93487.43
!  ADDITIONS AND REMOVALS:
!   C in Harvest Residues from Previous              0.00
!   C from Organic Applications                      0.00
!   C in returned senesced material               1103.84
!   CO2-C emitted                                                     1414.93
!                                                --------            --------
! TOTAL C BALANCE                                94902.34            94902.36
!   Balance                                                             0.023

*DSSAT Cropping System Model Ver. 4.8.0.019 -develop  DEC 23, 2021 14:23:39

*RUN  19        : TMS14F1013P0007           CSYCA048 UYAG1701   19
 MODEL          : CSYCA048 - Cassava
 EXPERIMENT     : UYAG1701 CS UYT_GXE
 DATA PATH      :
 TREATMENT 19   : TMS14F1013P0007           CSYCA048
  

!                                                 Initial               Final
!                                                Year/DOY            Year/DOY
!                                                2019-168            2019-168
! SOIL C BALANCE                                 --------- kg[C]/ha ---------
!  SOIL & SURFACE ORGANIC C
!   Soil Organic C                               93798.50            92383.59
!   Surface Organic C                                0.00                0.00
!   Soil Litter C                                    0.00              469.37
!   Surface Litter C                                 0.00              634.47
!                                                --------            --------
!   Total C in Soil and Surface Layers           93798.50            93487.43
!  ADDITIONS AND REMOVALS:
!   C in Harvest Residues from Previous              0.00
!   C from Organic Applications                      0.00
!   C in returned senesced material               1103.84
!   CO2-C emitted                                                     1414.93
!                                                --------            --------
! TOTAL C BALANCE                                94902.34            94902.36
!   Balance                                                             0.023

*DSSAT Cropping System Model Ver. 4.8.0.019 -develop  DEC 23, 2021 14:23:39

*RUN  20        : TMS14F1014P0016           CSYCA048 UYAG1701   20
 MODEL          : CSYCA048 - Cassava
 EXPERIMENT     : UYAG1701 CS UYT_GXE
 DATA PATH      :
 TREATMENT 20   : TMS14F1014P0016           CSYCA048
  

!                                                 Initial               Final
!                                                Year/DOY            Year/DOY
!                                                2019-168            2019-168
! SOIL C BALANCE                                 --------- kg[C]/ha ---------
!  SOIL & SURFACE ORGANIC C
!   Soil Organic C                               93798.50            92383.59
!   Surface Organic C                                0.00                0.00
!   Soil Litter C                                    0.00              469.37
!   Surface Litter C                                 0.00              634.47
!                                                --------            --------
!   Total C in Soil and Surface Layers           93798.50            93487.43
!  ADDITIONS AND REMOVALS:
!   C in Harvest Residues from Previous              0.00
!   C from Organic Applications                      0.00
!   C in returned senesced material               1103.84
!   CO2-C emitted                                                     1414.93
!                                                --------            --------
! TOTAL C BALANCE                                94902.34            94902.36
!   Balance                                                             0.023

*DSSAT Cropping System Model Ver. 4.8.0.019 -develop  DEC 23, 2021 14:23:39

*RUN  21        : TMS14F1014P0017           CSYCA048 UYAG1701   21
 MODEL          : CSYCA048 - Cassava
 EXPERIMENT     : UYAG1701 CS UYT_GXE
 DATA PATH      :
 TREATMENT 21   : TMS14F1014P0017           CSYCA048
  

!                                                 Initial               Final
!                                                Year/DOY            Year/DOY
!                                                2019-168            2019-168
! SOIL C BALANCE                                 --------- kg[C]/ha ---------
!  SOIL & SURFACE ORGANIC C
!   Soil Organic C                               93798.50            92383.59
!   Surface Organic C                                0.00                0.00
!   Soil Litter C                                    0.00              469.37
!   Surface Litter C                                 0.00              634.47
!                                                --------            --------
!   Total C in Soil and Surface Layers           93798.50            93487.43
!  ADDITIONS AND REMOVALS:
!   C in Harvest Residues from Previous              0.00
!   C from Organic Applications                      0.00
!   C in returned senesced material               1103.84
!   CO2-C emitted                                                     1414.93
!                                                --------            --------
! TOTAL C BALANCE                                94902.34            94902.36
!   Balance                                                             0.023

*DSSAT Cropping System Model Ver. 4.8.0.019 -develop  DEC 23, 2021 14:23:40

*RUN  22        : TMS14F1016P0006           CSYCA048 UYAG1701   22
 MODEL          : CSYCA048 - Cassava
 EXPERIMENT     : UYAG1701 CS UYT_GXE
 DATA PATH      :
 TREATMENT 22   : TMS14F1016P0006           CSYCA048
  

!                                                 Initial               Final
!                                                Year/DOY            Year/DOY
!                                                2019-168            2019-168
! SOIL C BALANCE                                 --------- kg[C]/ha ---------
!  SOIL & SURFACE ORGANIC C
!   Soil Organic C                               93798.50            92383.59
!   Surface Organic C                                0.00                0.00
!   Soil Litter C                                    0.00              469.37
!   Surface Litter C                                 0.00              634.47
!                                                --------            --------
!   Total C in Soil and Surface Layers           93798.50            93487.43
!  ADDITIONS AND REMOVALS:
!   C in Harvest Residues from Previous              0.00
!   C from Organic Applications                      0.00
!   C in returned senesced material               1103.84
!   CO2-C emitted                                                     1414.93
!                                                --------            --------
! TOTAL C BALANCE                                94902.34            94902.36
!   Balance                                                             0.023

*DSSAT Cropping System Model Ver. 4.8.0.019 -develop  DEC 23, 2021 14:23:40

*RUN  23        : TMS14F1019P0015           CSYCA048 UYAG1701   23
 MODEL          : CSYCA048 - Cassava
 EXPERIMENT     : UYAG1701 CS UYT_GXE
 DATA PATH      :
 TREATMENT 23   : TMS14F1019P0015           CSYCA048
  

!                                                 Initial               Final
!                                                Year/DOY            Year/DOY
!                                                2019-168            2019-168
! SOIL C BALANCE                                 --------- kg[C]/ha ---------
!  SOIL & SURFACE ORGANIC C
!   Soil Organic C                               93798.50            92383.59
!   Surface Organic C                                0.00                0.00
!   Soil Litter C                                    0.00              469.37
!   Surface Litter C                                 0.00              634.47
!                                                --------            --------
!   Total C in Soil and Surface Layers           93798.50            93487.43
!  ADDITIONS AND REMOVALS:
!   C in Harvest Residues from Previous              0.00
!   C from Organic Applications                      0.00
!   C in returned senesced material               1103.84
!   CO2-C emitted                                                     1414.93
!                                                --------            --------
! TOTAL C BALANCE                                94902.34            94902.36
!   Balance                                                             0.023

*DSSAT Cropping System Model Ver. 4.8.0.019 -develop  DEC 23, 2021 14:23:40

*RUN  24        : TMS14F1022P0003           CSYCA048 UYAG1701   24
 MODEL          : CSYCA048 - Cassava
 EXPERIMENT     : UYAG1701 CS UYT_GXE
 DATA PATH      :
 TREATMENT 24   : TMS14F1022P0003           CSYCA048
  

!                                                 Initial               Final
!                                                Year/DOY            Year/DOY
!                                                2019-168            2019-168
! SOIL C BALANCE                                 --------- kg[C]/ha ---------
!  SOIL & SURFACE ORGANIC C
!   Soil Organic C                               93798.50            92383.59
!   Surface Organic C                                0.00                0.00
!   Soil Litter C                                    0.00              469.37
!   Surface Litter C                                 0.00              634.47
!                                                --------            --------
!   Total C in Soil and Surface Layers           93798.50            93487.43
!  ADDITIONS AND REMOVALS:
!   C in Harvest Residues from Previous              0.00
!   C from Organic Applications                      0.00
!   C in returned senesced material               1103.84
!   CO2-C emitted                                                     1414.93
!                                                --------            --------
! TOTAL C BALANCE                                94902.34            94902.36
!   Balance                                                             0.023

*DSSAT Cropping System Model Ver. 4.8.0.019 -develop  DEC 23, 2021 14:23:40

*RUN  25        : TMS14F1022P0006           CSYCA048 UYAG1701   25
 MODEL          : CSYCA048 - Cassava
 EXPERIMENT     : UYAG1701 CS UYT_GXE
 DATA PATH      :
 TREATMENT 25   : TMS14F1022P0006           CSYCA048
  

!                                                 Initial               Final
!                                                Year/DOY            Year/DOY
!                                                2019-168            2019-168
! SOIL C BALANCE                                 --------- kg[C]/ha ---------
!  SOIL & SURFACE ORGANIC C
!   Soil Organic C                               93798.50            92383.59
!   Surface Organic C                                0.00                0.00
!   Soil Litter C                                    0.00              469.37
!   Surface Litter C                                 0.00              634.47
!                                                --------            --------
!   Total C in Soil and Surface Layers           93798.50            93487.43
!  ADDITIONS AND REMOVALS:
!   C in Harvest Residues from Previous              0.00
!   C from Organic Applications                      0.00
!   C in returned senesced material               1103.84
!   CO2-C emitted                                                     1414.93
!                                                --------            --------
! TOTAL C BALANCE                                94902.34            94902.36
!   Balance                                                             0.023

*DSSAT Cropping System Model Ver. 4.8.0.019 -develop  DEC 23, 2021 14:23:40

*RUN  26        : TMS14F1035P0004           CSYCA048 UYAG1701   26
 MODEL          : CSYCA048 - Cassava
 EXPERIMENT     : UYAG1701 CS UYT_GXE
 DATA PATH      :
 TREATMENT 26   : TMS14F1035P0004           CSYCA048
  

!                                                 Initial               Final
!                                                Year/DOY            Year/DOY
!                                                2019-168            2019-168
! SOIL C BALANCE                                 --------- kg[C]/ha ---------
!  SOIL & SURFACE ORGANIC C
!   Soil Organic C                               93798.50            92383.59
!   Surface Organic C                                0.00                0.00
!   Soil Litter C                                    0.00              469.37
!   Surface Litter C                                 0.00              634.47
!                                                --------            --------
!   Total C in Soil and Surface Layers           93798.50            93487.43
!  ADDITIONS AND REMOVALS:
!   C in Harvest Residues from Previous              0.00
!   C from Organic Applications                      0.00
!   C in returned senesced material               1103.84
!   CO2-C emitted                                                     1414.93
!                                                --------            --------
! TOTAL C BALANCE                                94902.34            94902.36
!   Balance                                                             0.023

*DSSAT Cropping System Model Ver. 4.8.0.019 -develop  DEC 23, 2021 14:23:41

*RUN  27        : TMS14F1035P0007           CSYCA048 UYAG1701   27
 MODEL          : CSYCA048 - Cassava
 EXPERIMENT     : UYAG1701 CS UYT_GXE
 DATA PATH      :
 TREATMENT 27   : TMS14F1035P0007           CSYCA048
  

!                                                 Initial               Final
!                                                Year/DOY            Year/DOY
!                                                2019-168            2019-168
! SOIL C BALANCE                                 --------- kg[C]/ha ---------
!  SOIL & SURFACE ORGANIC C
!   Soil Organic C                               93798.50            92383.59
!   Surface Organic C                                0.00                0.00
!   Soil Litter C                                    0.00              469.37
!   Surface Litter C                                 0.00              634.47
!                                                --------            --------
!   Total C in Soil and Surface Layers           93798.50            93487.43
!  ADDITIONS AND REMOVALS:
!   C in Harvest Residues from Previous              0.00
!   C from Organic Applications                      0.00
!   C in returned senesced material               1103.84
!   CO2-C emitted                                                     1414.93
!                                                --------            --------
! TOTAL C BALANCE                                94902.34            94902.36
!   Balance                                                             0.023

*DSSAT Cropping System Model Ver. 4.8.0.019 -develop  DEC 23, 2021 14:23:41

*RUN  28        : TMS14F1036P0007           CSYCA048 UYAG1701   28
 MODEL          : CSYCA048 - Cassava
 EXPERIMENT     : UYAG1701 CS UYT_GXE
 DATA PATH      :
 TREATMENT 28   : TMS14F1036P0007           CSYCA048
  

!                                                 Initial               Final
!                                                Year/DOY            Year/DOY
!                                                2019-168            2019-168
! SOIL C BALANCE                                 --------- kg[C]/ha ---------
!  SOIL & SURFACE ORGANIC C
!   Soil Organic C                               93798.50            92383.59
!   Surface Organic C                                0.00                0.00
!   Soil Litter C                                    0.00              469.37
!   Surface Litter C                                 0.00              634.47
!                                                --------            --------
!   Total C in Soil and Surface Layers           93798.50            93487.43
!  ADDITIONS AND REMOVALS:
!   C in Harvest Residues from Previous              0.00
!   C from Organic Applications                      0.00
!   C in returned senesced material               1103.84
!   CO2-C emitted                                                     1414.93
!                                                --------            --------
! TOTAL C BALANCE                                94902.34            94902.36
!   Balance                                                             0.023

*DSSAT Cropping System Model Ver. 4.8.0.019 -develop  DEC 23, 2021 14:23:41

*RUN  29        : TMS14F1049P0001           CSYCA048 UYAG1701   29
 MODEL          : CSYCA048 - Cassava
 EXPERIMENT     : UYAG1701 CS UYT_GXE
 DATA PATH      :
 TREATMENT 29   : TMS14F1049P0001           CSYCA048
  

!                                                 Initial               Final
!                                                Year/DOY            Year/DOY
!                                                2019-168            2019-168
! SOIL C BALANCE                                 --------- kg[C]/ha ---------
!  SOIL & SURFACE ORGANIC C
!   Soil Organic C                               93798.50            92383.59
!   Surface Organic C                                0.00                0.00
!   Soil Litter C                                    0.00              469.37
!   Surface Litter C                                 0.00              634.47
!                                                --------            --------
!   Total C in Soil and Surface Layers           93798.50            93487.43
!  ADDITIONS AND REMOVALS:
!   C in Harvest Residues from Previous              0.00
!   C from Organic Applications                      0.00
!   C in returned senesced material               1103.84
!   CO2-C emitted                                                     1414.93
!                                                --------            --------
! TOTAL C BALANCE                                94902.34            94902.36
!   Balance                                                             0.023

*DSSAT Cropping System Model Ver. 4.8.0.019 -develop  DEC 23, 2021 14:23:41

*RUN  30        : TMS14F1098P0013           CSYCA048 UYAG1701   30
 MODEL          : CSYCA048 - Cassava
 EXPERIMENT     : UYAG1701 CS UYT_GXE
 DATA PATH      :
 TREATMENT 30   : TMS14F1098P0013           CSYCA048
  

!                                                 Initial               Final
!                                                Year/DOY            Year/DOY
!                                                2019-168            2019-168
! SOIL C BALANCE                                 --------- kg[C]/ha ---------
!  SOIL & SURFACE ORGANIC C
!   Soil Organic C                               93798.50            92383.59
!   Surface Organic C                                0.00                0.00
!   Soil Litter C                                    0.00              469.37
!   Surface Litter C                                 0.00              634.47
!                                                --------            --------
!   Total C in Soil and Surface Layers           93798.50            93487.43
!  ADDITIONS AND REMOVALS:
!   C in Harvest Residues from Previous              0.00
!   C from Organic Applications                      0.00
!   C in returned senesced material               1103.84
!   CO2-C emitted                                                     1414.93
!                                                --------            --------
! TOTAL C BALANCE                                94902.34            94902.36
!   Balance                                                             0.023

*DSSAT Cropping System Model Ver. 4.8.0.019 -develop  DEC 23, 2021 14:23:41

*RUN  31        : TMS14F1120P0003           CSYCA048 UYAG1701   31
 MODEL          : CSYCA048 - Cassava
 EXPERIMENT     : UYAG1701 CS UYT_GXE
 DATA PATH      :
 TREATMENT 31   : TMS14F1120P0003           CSYCA048
  

!                                                 Initial               Final
!                                                Year/DOY            Year/DOY
!                                                2019-168            2019-168
! SOIL C BALANCE                                 --------- kg[C]/ha ---------
!  SOIL & SURFACE ORGANIC C
!   Soil Organic C                               93798.50            92383.59
!   Surface Organic C                                0.00                0.00
!   Soil Litter C                                    0.00              469.37
!   Surface Litter C                                 0.00              634.47
!                                                --------            --------
!   Total C in Soil and Surface Layers           93798.50            93487.43
!  ADDITIONS AND REMOVALS:
!   C in Harvest Residues from Previous              0.00
!   C from Organic Applications                      0.00
!   C in returned senesced material               1103.84
!   CO2-C emitted                                                     1414.93
!                                                --------            --------
! TOTAL C BALANCE                                94902.34            94902.36
!   Balance                                                             0.023

*DSSAT Cropping System Model Ver. 4.8.0.019 -develop  DEC 23, 2021 14:23:42

*RUN  32        : TMS14F1125P0010           CSYCA048 UYAG1701   32
 MODEL          : CSYCA048 - Cassava
 EXPERIMENT     : UYAG1701 CS UYT_GXE
 DATA PATH      :
 TREATMENT 32   : TMS14F1125P0010           CSYCA048
  

!                                                 Initial               Final
!                                                Year/DOY            Year/DOY
!                                                2019-168            2019-168
! SOIL C BALANCE                                 --------- kg[C]/ha ---------
!  SOIL & SURFACE ORGANIC C
!   Soil Organic C                               93798.50            92383.59
!   Surface Organic C                                0.00                0.00
!   Soil Litter C                                    0.00              469.37
!   Surface Litter C                                 0.00              634.47
!                                                --------            --------
!   Total C in Soil and Surface Layers           93798.50            93487.43
!  ADDITIONS AND REMOVALS:
!   C in Harvest Residues from Previous              0.00
!   C from Organic Applications                      0.00
!   C in returned senesced material               1103.84
!   CO2-C emitted                                                     1414.93
!                                                --------            --------
! TOTAL C BALANCE                                94902.34            94902.36
!   Balance                                                             0.023

*DSSAT Cropping System Model Ver. 4.8.0.019 -develop  DEC 23, 2021 14:23:42

*RUN  33        : TMS14F1131P0001           CSYCA048 UYAG1701   33
 MODEL          : CSYCA048 - Cassava
 EXPERIMENT     : UYAG1701 CS UYT_GXE
 DATA PATH      :
 TREATMENT 33   : TMS14F1131P0001           CSYCA048
  

!                                                 Initial               Final
!                                                Year/DOY            Year/DOY
!                                                2019-168            2019-168
! SOIL C BALANCE                                 --------- kg[C]/ha ---------
!  SOIL & SURFACE ORGANIC C
!   Soil Organic C                               93798.50            92383.59
!   Surface Organic C                                0.00                0.00
!   Soil Litter C                                    0.00              469.37
!   Surface Litter C                                 0.00              634.47
!                                                --------            --------
!   Total C in Soil and Surface Layers           93798.50            93487.43
!  ADDITIONS AND REMOVALS:
!   C in Harvest Residues from Previous              0.00
!   C from Organic Applications                      0.00
!   C in returned senesced material               1103.84
!   CO2-C emitted                                                     1414.93
!                                                --------            --------
! TOTAL C BALANCE                                94902.34            94902.36
!   Balance                                                             0.023

*DSSAT Cropping System Model Ver. 4.8.0.019 -develop  DEC 23, 2021 14:23:42

*RUN  34        : TMS14F1146P0002           CSYCA048 UYAG1701   34
 MODEL          : CSYCA048 - Cassava
 EXPERIMENT     : UYAG1701 CS UYT_GXE
 DATA PATH      :
 TREATMENT 34   : TMS14F1146P0002           CSYCA048
  

!                                                 Initial               Final
!                                                Year/DOY            Year/DOY
!                                                2019-168            2019-168
! SOIL C BALANCE                                 --------- kg[C]/ha ---------
!  SOIL & SURFACE ORGANIC C
!   Soil Organic C                               93798.50            92383.59
!   Surface Organic C                                0.00                0.00
!   Soil Litter C                                    0.00              469.37
!   Surface Litter C                                 0.00              634.47
!                                                --------            --------
!   Total C in Soil and Surface Layers           93798.50            93487.43
!  ADDITIONS AND REMOVALS:
!   C in Harvest Residues from Previous              0.00
!   C from Organic Applications                      0.00
!   C in returned senesced material               1103.84
!   CO2-C emitted                                                     1414.93
!                                                --------            --------
! TOTAL C BALANCE                                94902.34            94902.36
!   Balance                                                             0.023

*DSSAT Cropping System Model Ver. 4.8.0.019 -develop  DEC 23, 2021 14:23:42

*RUN  35        : TMS14F1159P0003           CSYCA048 UYAG1701   35
 MODEL          : CSYCA048 - Cassava
 EXPERIMENT     : UYAG1701 CS UYT_GXE
 DATA PATH      :
 TREATMENT 35   : TMS14F1159P0003           CSYCA048
  

!                                                 Initial               Final
!                                                Year/DOY            Year/DOY
!                                                2019-168            2019-168
! SOIL C BALANCE                                 --------- kg[C]/ha ---------
!  SOIL & SURFACE ORGANIC C
!   Soil Organic C                               93798.50            92383.59
!   Surface Organic C                                0.00                0.00
!   Soil Litter C                                    0.00              469.37
!   Surface Litter C                                 0.00              634.47
!                                                --------            --------
!   Total C in Soil and Surface Layers           93798.50            93487.43
!  ADDITIONS AND REMOVALS:
!   C in Harvest Residues from Previous              0.00
!   C from Organic Applications                      0.00
!   C in returned senesced material               1103.84
!   CO2-C emitted                                                     1414.93
!                                                --------            --------
! TOTAL C BALANCE                                94902.34            94902.36
!   Balance                                                             0.023

*DSSAT Cropping System Model Ver. 4.8.0.019 -develop  DEC 23, 2021 14:23:42

*RUN  36        : TMS14F1194P0002           CSYCA048 UYAG1701   36
 MODEL          : CSYCA048 - Cassava
 EXPERIMENT     : UYAG1701 CS UYT_GXE
 DATA PATH      :
 TREATMENT 36   : TMS14F1194P0002           CSYCA048
  

!                                                 Initial               Final
!                                                Year/DOY            Year/DOY
!                                                2019-168            2019-168
! SOIL C BALANCE                                 --------- kg[C]/ha ---------
!  SOIL & SURFACE ORGANIC C
!   Soil Organic C                               93798.50            92383.59
!   Surface Organic C                                0.00                0.00
!   Soil Litter C                                    0.00              469.37
!   Surface Litter C                                 0.00              634.47
!                                                --------            --------
!   Total C in Soil and Surface Layers           93798.50            93487.43
!  ADDITIONS AND REMOVALS:
!   C in Harvest Residues from Previous              0.00
!   C from Organic Applications                      0.00
!   C in returned senesced material               1103.84
!   CO2-C emitted                                                     1414.93
!                                                --------            --------
! TOTAL C BALANCE                                94902.34            94902.36
!   Balance                                                             0.023

*DSSAT Cropping System Model Ver. 4.8.0.019 -develop  DEC 23, 2021 14:23:43

*RUN  37        : TMS14F1195P0004           CSYCA048 UYAG1701   37
 MODEL          : CSYCA048 - Cassava
 EXPERIMENT     : UYAG1701 CS UYT_GXE
 DATA PATH      :
 TREATMENT 37   : TMS14F1195P0004           CSYCA048
  

!                                                 Initial               Final
!                                                Year/DOY            Year/DOY
!                                                2019-168            2019-168
! SOIL C BALANCE                                 --------- kg[C]/ha ---------
!  SOIL & SURFACE ORGANIC C
!   Soil Organic C                               93798.50            92383.59
!   Surface Organic C                                0.00                0.00
!   Soil Litter C                                    0.00              469.37
!   Surface Litter C                                 0.00              634.47
!                                                --------            --------
!   Total C in Soil and Surface Layers           93798.50            93487.43
!  ADDITIONS AND REMOVALS:
!   C in Harvest Residues from Previous              0.00
!   C from Organic Applications                      0.00
!   C in returned senesced material               1103.84
!   CO2-C emitted                                                     1414.93
!                                                --------            --------
! TOTAL C BALANCE                                94902.34            94902.36
!   Balance                                                             0.023

*DSSAT Cropping System Model Ver. 4.8.0.019 -develop  DEC 23, 2021 14:23:43

*RUN  38        : TMS14F1195P0005           CSYCA048 UYAG1701   38
 MODEL          : CSYCA048 - Cassava
 EXPERIMENT     : UYAG1701 CS UYT_GXE
 DATA PATH      :
 TREATMENT 38   : TMS14F1195P0005           CSYCA048
  

!                                                 Initial               Final
!                                                Year/DOY            Year/DOY
!                                                2019-168            2019-168
! SOIL C BALANCE                                 --------- kg[C]/ha ---------
!  SOIL & SURFACE ORGANIC C
!   Soil Organic C                               93798.50            92383.59
!   Surface Organic C                                0.00                0.00
!   Soil Litter C                                    0.00              469.37
!   Surface Litter C                                 0.00              634.47
!                                                --------            --------
!   Total C in Soil and Surface Layers           93798.50            93487.43
!  ADDITIONS AND REMOVALS:
!   C in Harvest Residues from Previous              0.00
!   C from Organic Applications                      0.00
!   C in returned senesced material               1103.84
!   CO2-C emitted                                                     1414.93
!                                                --------            --------
! TOTAL C BALANCE                                94902.34            94902.36
!   Balance                                                             0.023

*DSSAT Cropping System Model Ver. 4.8.0.019 -develop  DEC 23, 2021 14:23:43

*RUN  39        : TMS14F1196P0003           CSYCA048 UYAG1701   39
 MODEL          : CSYCA048 - Cassava
 EXPERIMENT     : UYAG1701 CS UYT_GXE
 DATA PATH      :
 TREATMENT 39   : TMS14F1196P0003           CSYCA048
  

!                                                 Initial               Final
!                                                Year/DOY            Year/DOY
!                                                2019-168            2019-168
! SOIL C BALANCE                                 --------- kg[C]/ha ---------
!  SOIL & SURFACE ORGANIC C
!   Soil Organic C                               93798.50            92383.59
!   Surface Organic C                                0.00                0.00
!   Soil Litter C                                    0.00              469.37
!   Surface Litter C                                 0.00              634.47
!                                                --------            --------
!   Total C in Soil and Surface Layers           93798.50            93487.43
!  ADDITIONS AND REMOVALS:
!   C in Harvest Residues from Previous              0.00
!   C from Organic Applications                      0.00
!   C in returned senesced material               1103.84
!   CO2-C emitted                                                     1414.93
!                                                --------            --------
! TOTAL C BALANCE                                94902.34            94902.36
!   Balance                                                             0.023

*DSSAT Cropping System Model Ver. 4.8.0.019 -develop  DEC 23, 2021 14:23:43

*RUN  40        : TMS14F1208P0007           CSYCA048 UYAG1701   40
 MODEL          : CSYCA048 - Cassava
 EXPERIMENT     : UYAG1701 CS UYT_GXE
 DATA PATH      :
 TREATMENT 40   : TMS14F1208P0007           CSYCA048
  

!                                                 Initial               Final
!                                                Year/DOY            Year/DOY
!                                                2019-168            2019-168
! SOIL C BALANCE                                 --------- kg[C]/ha ---------
!  SOIL & SURFACE ORGANIC C
!   Soil Organic C                               93798.50            92383.59
!   Surface Organic C                                0.00                0.00
!   Soil Litter C                                    0.00              469.37
!   Surface Litter C                                 0.00              634.47
!                                                --------            --------
!   Total C in Soil and Surface Layers           93798.50            93487.43
!  ADDITIONS AND REMOVALS:
!   C in Harvest Residues from Previous              0.00
!   C from Organic Applications                      0.00
!   C in returned senesced material               1103.84
!   CO2-C emitted                                                     1414.93
!                                                --------            --------
! TOTAL C BALANCE                                94902.34            94902.36
!   Balance                                                             0.023

*DSSAT Cropping System Model Ver. 4.8.0.019 -develop  DEC 23, 2021 14:23:43

*RUN  41        : TMS14F1223P0007           CSYCA048 UYAG1701   41
 MODEL          : CSYCA048 - Cassava
 EXPERIMENT     : UYAG1701 CS UYT_GXE
 DATA PATH      :
 TREATMENT 41   : TMS14F1223P0007           CSYCA048
  

!                                                 Initial               Final
!                                                Year/DOY            Year/DOY
!                                                2019-168            2019-168
! SOIL C BALANCE                                 --------- kg[C]/ha ---------
!  SOIL & SURFACE ORGANIC C
!   Soil Organic C                               93798.50            92383.59
!   Surface Organic C                                0.00                0.00
!   Soil Litter C                                    0.00              469.37
!   Surface Litter C                                 0.00              634.47
!                                                --------            --------
!   Total C in Soil and Surface Layers           93798.50            93487.43
!  ADDITIONS AND REMOVALS:
!   C in Harvest Residues from Previous              0.00
!   C from Organic Applications                      0.00
!   C in returned senesced material               1103.84
!   CO2-C emitted                                                     1414.93
!                                                --------            --------
! TOTAL C BALANCE                                94902.34            94902.36
!   Balance                                                             0.023

*DSSAT Cropping System Model Ver. 4.8.0.019 -develop  DEC 23, 2021 14:23:44

*RUN  42        : TMS14F1224P0004           CSYCA048 UYAG1701   42
 MODEL          : CSYCA048 - Cassava
 EXPERIMENT     : UYAG1701 CS UYT_GXE
 DATA PATH      :
 TREATMENT 42   : TMS14F1224P0004           CSYCA048
  

!                                                 Initial               Final
!                                                Year/DOY            Year/DOY
!                                                2019-168            2019-168
! SOIL C BALANCE                                 --------- kg[C]/ha ---------
!  SOIL & SURFACE ORGANIC C
!   Soil Organic C                               93798.50            92383.59
!   Surface Organic C                                0.00                0.00
!   Soil Litter C                                    0.00              469.37
!   Surface Litter C                                 0.00              634.47
!                                                --------            --------
!   Total C in Soil and Surface Layers           93798.50            93487.43
!  ADDITIONS AND REMOVALS:
!   C in Harvest Residues from Previous              0.00
!   C from Organic Applications                      0.00
!   C in returned senesced material               1103.84
!   CO2-C emitted                                                     1414.93
!                                                --------            --------
! TOTAL C BALANCE                                94902.34            94902.36
!   Balance                                                             0.023

*DSSAT Cropping System Model Ver. 4.8.0.019 -develop  DEC 23, 2021 14:23:44

*RUN  43        : TMS14F1262P0002           CSYCA048 UYAG1701   43
 MODEL          : CSYCA048 - Cassava
 EXPERIMENT     : UYAG1701 CS UYT_GXE
 DATA PATH      :
 TREATMENT 43   : TMS14F1262P0002           CSYCA048
  

!                                                 Initial               Final
!                                                Year/DOY            Year/DOY
!                                                2019-168            2019-168
! SOIL C BALANCE                                 --------- kg[C]/ha ---------
!  SOIL & SURFACE ORGANIC C
!   Soil Organic C                               93798.50            92383.59
!   Surface Organic C                                0.00                0.00
!   Soil Litter C                                    0.00              469.37
!   Surface Litter C                                 0.00              634.47
!                                                --------            --------
!   Total C in Soil and Surface Layers           93798.50            93487.43
!  ADDITIONS AND REMOVALS:
!   C in Harvest Residues from Previous              0.00
!   C from Organic Applications                      0.00
!   C in returned senesced material               1103.84
!   CO2-C emitted                                                     1414.93
!                                                --------            --------
! TOTAL C BALANCE                                94902.34            94902.36
!   Balance                                                             0.023

*DSSAT Cropping System Model Ver. 4.8.0.019 -develop  DEC 23, 2021 14:23:44

*RUN  44        : TMS14F1278P0003           CSYCA048 UYAG1701   44
 MODEL          : CSYCA048 - Cassava
 EXPERIMENT     : UYAG1701 CS UYT_GXE
 DATA PATH      :
 TREATMENT 44   : TMS14F1278P0003           CSYCA048
  

!                                                 Initial               Final
!                                                Year/DOY            Year/DOY
!                                                2019-168            2019-168
! SOIL C BALANCE                                 --------- kg[C]/ha ---------
!  SOIL & SURFACE ORGANIC C
!   Soil Organic C                               93798.50            92383.59
!   Surface Organic C                                0.00                0.00
!   Soil Litter C                                    0.00              469.37
!   Surface Litter C                                 0.00              634.47
!                                                --------            --------
!   Total C in Soil and Surface Layers           93798.50            93487.43
!  ADDITIONS AND REMOVALS:
!   C in Harvest Residues from Previous              0.00
!   C from Organic Applications                      0.00
!   C in returned senesced material               1103.84
!   CO2-C emitted                                                     1414.93
!                                                --------            --------
! TOTAL C BALANCE                                94902.34            94902.36
!   Balance                                                             0.023

*DSSAT Cropping System Model Ver. 4.8.0.019 -develop  DEC 23, 2021 14:23:44

*RUN  45        : TMS14F1285P0006           CSYCA048 UYAG1701   45
 MODEL          : CSYCA048 - Cassava
 EXPERIMENT     : UYAG1701 CS UYT_GXE
 DATA PATH      :
 TREATMENT 45   : TMS14F1285P0006           CSYCA048
  

!                                                 Initial               Final
!                                                Year/DOY            Year/DOY
!                                                2019-168            2019-168
! SOIL C BALANCE                                 --------- kg[C]/ha ---------
!  SOIL & SURFACE ORGANIC C
!   Soil Organic C                               93798.50            92383.59
!   Surface Organic C                                0.00                0.00
!   Soil Litter C                                    0.00              469.37
!   Surface Litter C                                 0.00              634.47
!                                                --------            --------
!   Total C in Soil and Surface Layers           93798.50            93487.43
!  ADDITIONS AND REMOVALS:
!   C in Harvest Residues from Previous              0.00
!   C from Organic Applications                      0.00
!   C in returned senesced material               1103.84
!   CO2-C emitted                                                     1414.93
!                                                --------            --------
! TOTAL C BALANCE                                94902.34            94902.36
!   Balance                                                             0.023

*DSSAT Cropping System Model Ver. 4.8.0.019 -develop  DEC 23, 2021 14:23:44

*RUN  46        : TMS14F1285P0017           CSYCA048 UYAG1701   46
 MODEL          : CSYCA048 - Cassava
 EXPERIMENT     : UYAG1701 CS UYT_GXE
 DATA PATH      :
 TREATMENT 46   : TMS14F1285P0017           CSYCA048
  

!                                                 Initial               Final
!                                                Year/DOY            Year/DOY
!                                                2019-168            2019-168
! SOIL C BALANCE                                 --------- kg[C]/ha ---------
!  SOIL & SURFACE ORGANIC C
!   Soil Organic C                               93798.50            92383.59
!   Surface Organic C                                0.00                0.00
!   Soil Litter C                                    0.00              469.37
!   Surface Litter C                                 0.00              634.47
!                                                --------            --------
!   Total C in Soil and Surface Layers           93798.50            93487.43
!  ADDITIONS AND REMOVALS:
!   C in Harvest Residues from Previous              0.00
!   C from Organic Applications                      0.00
!   C in returned senesced material               1103.84
!   CO2-C emitted                                                     1414.93
!                                                --------            --------
! TOTAL C BALANCE                                94902.34            94902.36
!   Balance                                                             0.023

*DSSAT Cropping System Model Ver. 4.8.0.019 -develop  DEC 23, 2021 14:23:45

*RUN  47        : TMS14F1287P0008           CSYCA048 UYAG1701   47
 MODEL          : CSYCA048 - Cassava
 EXPERIMENT     : UYAG1701 CS UYT_GXE
 DATA PATH      :
 TREATMENT 47   : TMS14F1287P0008           CSYCA048
  

!                                                 Initial               Final
!                                                Year/DOY            Year/DOY
!                                                2019-168            2019-168
! SOIL C BALANCE                                 --------- kg[C]/ha ---------
!  SOIL & SURFACE ORGANIC C
!   Soil Organic C                               93798.50            92383.59
!   Surface Organic C                                0.00                0.00
!   Soil Litter C                                    0.00              469.37
!   Surface Litter C                                 0.00              634.47
!                                                --------            --------
!   Total C in Soil and Surface Layers           93798.50            93487.43
!  ADDITIONS AND REMOVALS:
!   C in Harvest Residues from Previous              0.00
!   C from Organic Applications                      0.00
!   C in returned senesced material               1103.84
!   CO2-C emitted                                                     1414.93
!                                                --------            --------
! TOTAL C BALANCE                                94902.34            94902.36
!   Balance                                                             0.023

*DSSAT Cropping System Model Ver. 4.8.0.019 -develop  DEC 23, 2021 14:23:45

*RUN  48        : TMS14F1288P0008           CSYCA048 UYAG1701   48
 MODEL          : CSYCA048 - Cassava
 EXPERIMENT     : UYAG1701 CS UYT_GXE
 DATA PATH      :
 TREATMENT 48   : TMS14F1288P0008           CSYCA048
  

!                                                 Initial               Final
!                                                Year/DOY            Year/DOY
!                                                2019-168            2019-168
! SOIL C BALANCE                                 --------- kg[C]/ha ---------
!  SOIL & SURFACE ORGANIC C
!   Soil Organic C                               93798.50            92383.59
!   Surface Organic C                                0.00                0.00
!   Soil Litter C                                    0.00              469.37
!   Surface Litter C                                 0.00              634.47
!                                                --------            --------
!   Total C in Soil and Surface Layers           93798.50            93487.43
!  ADDITIONS AND REMOVALS:
!   C in Harvest Residues from Previous              0.00
!   C from Organic Applications                      0.00
!   C in returned senesced material               1103.84
!   CO2-C emitted                                                     1414.93
!                                                --------            --------
! TOTAL C BALANCE                                94902.34            94902.36
!   Balance                                                             0.023

*DSSAT Cropping System Model Ver. 4.8.0.019 -develop  DEC 23, 2021 14:23:45

*RUN  49        : TMS14F1291P0003           CSYCA048 UYAG1701   49
 MODEL          : CSYCA048 - Cassava
 EXPERIMENT     : UYAG1701 CS UYT_GXE
 DATA PATH      :
 TREATMENT 49   : TMS14F1291P0003           CSYCA048
  

!                                                 Initial               Final
!                                                Year/DOY            Year/DOY
!                                                2019-168            2019-168
! SOIL C BALANCE                                 --------- kg[C]/ha ---------
!  SOIL & SURFACE ORGANIC C
!   Soil Organic C                               93798.50            92383.59
!   Surface Organic C                                0.00                0.00
!   Soil Litter C                                    0.00              469.37
!   Surface Litter C                                 0.00              634.47
!                                                --------            --------
!   Total C in Soil and Surface Layers           93798.50            93487.43
!  ADDITIONS AND REMOVALS:
!   C in Harvest Residues from Previous              0.00
!   C from Organic Applications                      0.00
!   C in returned senesced material               1103.84
!   CO2-C emitted                                                     1414.93
!                                                --------            --------
! TOTAL C BALANCE                                94902.34            94902.36
!   Balance                                                             0.023

*DSSAT Cropping System Model Ver. 4.8.0.019 -develop  DEC 23, 2021 14:23:45

*RUN  50        : TMS14F1291P0011           CSYCA048 UYAG1701   50
 MODEL          : CSYCA048 - Cassava
 EXPERIMENT     : UYAG1701 CS UYT_GXE
 DATA PATH      :
 TREATMENT 50   : TMS14F1291P0011           CSYCA048
  

!                                                 Initial               Final
!                                                Year/DOY            Year/DOY
!                                                2019-168            2019-168
! SOIL C BALANCE                                 --------- kg[C]/ha ---------
!  SOIL & SURFACE ORGANIC C
!   Soil Organic C                               93798.50            92383.59
!   Surface Organic C                                0.00                0.00
[...]
!   Total C in Soil and Surface Layers           93798.50            93487.43
!  ADDITIONS AND REMOVALS:
!   C in Harvest Residues from Previous              0.00
!   C from Organic Applications                      0.00
!   C in returned senesced material               1103.84
!   CO2-C emitted                                                     1414.93
!                                                --------            --------
! TOTAL C BALANCE                                94902.34            94902.36
!   Balance                                                             0.023

*DSSAT Cropping System Model Ver. 4.8.0.019 -develop  DEC 23, 2021 14:23:46

*RUN  56        : TMS14F1300P0002           CSYCA048 UYAG1701   56
 MODEL          : CSYCA048 - Cassava
 EXPERIMENT     : UYAG1701 CS UYT_GXE
 DATA PATH      :
 TREATMENT 56   : TMS14F1300P0002           CSYCA048
  

!                                                 Initial               Final
!                                                Year/DOY            Year/DOY
!                                                2019-168            2019-168
! SOIL C BALANCE                                 --------- kg[C]/ha ---------
!  SOIL & SURFACE ORGANIC C
!   Soil Organic C                               93798.50            92383.59
!   Surface Organic C                                0.00                0.00
!   Soil Litter C                                    0.00              469.37
!   Surface Litter C                                 0.00              634.47
!                                                --------            --------
!   Total C in Soil and Surface Layers           93798.50            93487.43
!  ADDITIONS AND REMOVALS:
!   C in Harvest Residues from Previous              0.00
!   C from Organic Applications                      0.00
!   C in returned senesced material               1103.84
!   CO2-C emitted                                                     1414.93
!                                                --------            --------
! TOTAL C BALANCE                                94902.34            94902.36
!   Balance                                                             0.023

*DSSAT Cropping System Model Ver. 4.8.0.019 -develop  DEC 23, 2021 14:23:47

*RUN  57        : TMS14F1300P0008           CSYCA048 UYAG1701   57
 MODEL          : CSYCA048 - Cassava
 EXPERIMENT     : UYAG1701 CS UYT_GXE
 DATA PATH      :
 TREATMENT 57   : TMS14F1300P0008           CSYCA048
  

!                                                 Initial               Final
!                                                Year/DOY            Year/DOY
!                                                2019-168            2019-168
! SOIL C BALANCE                                 --------- kg[C]/ha ---------
!  SOIL & SURFACE ORGANIC C
!   Soil Organic C                               93798.50            92383.59
!   Surface Organic C                                0.00                0.00
!   Soil Litter C                                    0.00              469.37
!   Surface Litter C                                 0.00              634.47
!                                                --------            --------
!   Total C in Soil and Surface Layers           93798.50            93487.43
!  ADDITIONS AND REMOVALS:
!   C in Harvest Residues from Previous              0.00
!   C from Organic Applications                      0.00
!   C in returned senesced material               1103.84
!   CO2-C emitted                                                     1414.93
!                                                --------            --------
! TOTAL C BALANCE                                94902.34            94902.36
!   Balance                                                             0.023

*DSSAT Cropping System Model Ver. 4.8.0.019 -develop  DEC 23, 2021 14:23:47

*RUN  58        : TMS14F1301P0004           CSYCA048 UYAG1701   58
 MODEL          : CSYCA048 - Cassava
 EXPERIMENT     : UYAG1701 CS UYT_GXE
 DATA PATH      :
 TREATMENT 58   : TMS14F1301P0004           CSYCA048
  

!                                                 Initial               Final
!                                                Year/DOY            Year/DOY
!                                                2019-168            2019-168
! SOIL C BALANCE                                 --------- kg[C]/ha ---------
!  SOIL & SURFACE ORGANIC C
!   Soil Organic C                               93798.50            92383.59
!   Surface Organic C                                0.00                0.00
!   Soil Litter C                                    0.00              469.37
!   Surface Litter C                                 0.00              634.47
!                                                --------            --------
!   Total C in Soil and Surface Layers           93798.50            93487.43
!  ADDITIONS AND REMOVALS:
!   C in Harvest Residues from Previous              0.00
!   C from Organic Applications                      0.00
!   C in returned senesced material               1103.84
!   CO2-C emitted                                                     1414.93
!                                                --------            --------
! TOTAL C BALANCE                                94902.34            94902.36
!   Balance                                                             0.023

*DSSAT Cropping System Model Ver. 4.8.0.019 -develop  DEC 23, 2021 14:23:47

*RUN  59        : TMS14F1301P0013           CSYCA048 UYAG1701   59
 MODEL          : CSYCA048 - Cassava
 EXPERIMENT     : UYAG1701 CS UYT_GXE
 DATA PATH      :
 TREATMENT 59   : TMS14F1301P0013           CSYCA048
  

!                                                 Initial               Final
!                                                Year/DOY            Year/DOY
!                                                2019-168            2019-168
! SOIL C BALANCE                                 --------- kg[C]/ha ---------
!  SOIL & SURFACE ORGANIC C
!   Soil Organic C                               93798.50            92383.59
!   Surface Organic C                                0.00                0.00
!   Soil Litter C                                    0.00              469.37
!   Surface Litter C                                 0.00              634.47
!                                                --------            --------
!   Total C in Soil and Surface Layers           93798.50            93487.43
!  ADDITIONS AND REMOVALS:
!   C in Harvest Residues from Previous              0.00
!   C from Organic Applications                      0.00
!   C in returned senesced material               1103.84
!   CO2-C emitted                                                     1414.93
!                                                --------            --------
! TOTAL C BALANCE                                94902.34            94902.36
!   Balance                                                             0.023

*DSSAT Cropping System Model Ver. 4.8.0.019 -develop  DEC 23, 2021 14:23:47

*RUN  60        : TMS14F1303P0012           CSYCA048 UYAG1701   60
 MODEL          : CSYCA048 - Cassava
 EXPERIMENT     : UYAG1701 CS UYT_GXE
 DATA PATH      :
 TREATMENT 60   : TMS14F1303P0012           CSYCA048
  

!                                                 Initial               Final
!                                                Year/DOY            Year/DOY
!                                                2019-168            2019-168
! SOIL C BALANCE                                 --------- kg[C]/ha ---------
!  SOIL & SURFACE ORGANIC C
!   Soil Organic C                               93798.50            92383.59
!   Surface Organic C                                0.00                0.00
!   Soil Litter C                                    0.00              469.37
!   Surface Litter C                                 0.00              634.47
!                                                --------            --------
!   Total C in Soil and Surface Layers           93798.50            93487.43
!  ADDITIONS AND REMOVALS:
!   C in Harvest Residues from Previous              0.00
!   C from Organic Applications                      0.00
!   C in returned senesced material               1103.84
!   CO2-C emitted                                                     1414.93
!                                                --------            --------
! TOTAL C BALANCE                                94902.34            94902.36
!   Balance                                                             0.023

*DSSAT Cropping System Model Ver. 4.8.0.019 -develop  DEC 23, 2021 14:23:47

*RUN  61        : TMS14F1306P0008           CSYCA048 UYAG1701   61
 MODEL          : CSYCA048 - Cassava
 EXPERIMENT     : UYAG1701 CS UYT_GXE
 DATA PATH      :
 TREATMENT 61   : TMS14F1306P0008           CSYCA048
  

!                                                 Initial               Final
!                                                Year/DOY            Year/DOY
!                                                2019-168            2019-168
! SOIL C BALANCE                                 --------- kg[C]/ha ---------
!  SOIL & SURFACE ORGANIC C
!   Soil Organic C                               93798.50            92383.59
!   Surface Organic C                                0.00                0.00
!   Soil Litter C                                    0.00              469.37
!   Surface Litter C                                 0.00              634.47
!                                                --------            --------
!   Total C in Soil and Surface Layers           93798.50            93487.43
!  ADDITIONS AND REMOVALS:
!   C in Harvest Residues from Previous              0.00
!   C from Organic Applications                      0.00
!   C in returned senesced material               1103.84
!   CO2-C emitted                                                     1414.93
!                                                --------            --------
! TOTAL C BALANCE                                94902.34            94902.36
!   Balance                                                             0.023

*DSSAT Cropping System Model Ver. 4.8.0.019 -develop  DEC 23, 2021 14:23:47

*RUN  62        : TMS14F1306P0015           CSYCA048 UYAG1701   62
 MODEL          : CSYCA048 - Cassava
 EXPERIMENT     : UYAG1701 CS UYT_GXE
 DATA PATH      :
 TREATMENT 62   : TMS14F1306P0015           CSYCA048
  

!                                                 Initial               Final
!                                                Year/DOY            Year/DOY
!                                                2019-168            2019-168
! SOIL C BALANCE                                 --------- kg[C]/ha ---------
!  SOIL & SURFACE ORGANIC C
!   Soil Organic C                               93798.50            92383.59
!   Surface Organic C                                0.00                0.00
!   Soil Litter C                                    0.00              469.37
!   Surface Litter C                                 0.00              634.47
!                                                --------            --------
!   Total C in Soil and Surface Layers           93798.50            93487.43
!  ADDITIONS AND REMOVALS:
!   C in Harvest Residues from Previous              0.00
!   C from Organic Applications                      0.00
!   C in returned senesced material               1103.84
!   CO2-C emitted                                                     1414.93
!                                                --------            --------
! TOTAL C BALANCE                                94902.34            94902.36
!   Balance                                                             0.023

*DSSAT Cropping System Model Ver. 4.8.0.019 -develop  DEC 23, 2021 14:23:48

*RUN  63        : TMS14F1306P0020           CSYCA048 UYAG1701   63
 MODEL          : CSYCA048 - Cassava
 EXPERIMENT     : UYAG1701 CS UYT_GXE
 DATA PATH      :
 TREATMENT 63   : TMS14F1306P0020           CSYCA048
  

!                                                 Initial               Final
!                                                Year/DOY            Year/DOY
!                                                2019-168            2019-168
! SOIL C BALANCE                                 --------- kg[C]/ha ---------
!  SOIL & SURFACE ORGANIC C
!   Soil Organic C                               93798.50            92383.59
!   Surface Organic C                                0.00                0.00
!   Soil Litter C                                    0.00              469.37
!   Surface Litter C                                 0.00              634.47
!                                                --------            --------
!   Total C in Soil and Surface Layers           93798.50            93487.43
!  ADDITIONS AND REMOVALS:
!   C in Harvest Residues from Previous              0.00
!   C from Organic Applications                      0.00
!   C in returned senesced material               1103.84
!   CO2-C emitted                                                     1414.93
!                                                --------            --------
! TOTAL C BALANCE                                94902.34            94902.36
!   Balance                                                             0.023

*DSSAT Cropping System Model Ver. 4.8.0.019 -develop  DEC 23, 2021 14:23:48

*RUN  64        : TMS14F1310P0004           CSYCA048 UYAG1701   64
 MODEL          : CSYCA048 - Cassava
 EXPERIMENT     : UYAG1701 CS UYT_GXE
 DATA PATH      :
 TREATMENT 64   : TMS14F1310P0004           CSYCA048
  

!                                                 Initial               Final
!                                                Year/DOY            Year/DOY
!                                                2019-168            2019-168
! SOIL C BALANCE                                 --------- kg[C]/ha ---------
!  SOIL & SURFACE ORGANIC C
!   Soil Organic C                               93798.50            92383.59
!   Surface Organic C                                0.00                0.00
!   Soil Litter C                                    0.00              469.37
!   Surface Litter C                                 0.00              634.47
!                                                --------            --------
!   Total C in Soil and Surface Layers           93798.50            93487.43
!  ADDITIONS AND REMOVALS:
!   C in Harvest Residues from Previous              0.00
!   C from Organic Applications                      0.00
!   C in returned senesced material               1103.84
!   CO2-C emitted                                                     1414.93
!                                                --------            --------
! TOTAL C BALANCE                                94902.34            94902.36
!   Balance                                                             0.023

*DSSAT Cropping System Model Ver. 4.8.0.019 -develop  DEC 23, 2021 14:23:48

*RUN  65        : TMS14F1310P0015           CSYCA048 UYAG1701   65
 MODEL          : CSYCA048 - Cassava
 EXPERIMENT     : UYAG1701 CS UYT_GXE
 DATA PATH      :
 TREATMENT 65   : TMS14F1310P0015           CSYCA048
  

!                                                 Initial               Final
!                                                Year/DOY            Year/DOY
!                                                2019-168            2019-168
! SOIL C BALANCE                                 --------- kg[C]/ha ---------
!  SOIL & SURFACE ORGANIC C
!   Soil Organic C                               93798.50            92383.59
!   Surface Organic C                                0.00                0.00
!   Soil Litter C                                    0.00              469.37
!   Surface Litter C                                 0.00              634.47
!                                                --------            --------
!   Total C in Soil and Surface Layers           93798.50            93487.43
!  ADDITIONS AND REMOVALS:
!   C in Harvest Residues from Previous              0.00
!   C from Organic Applications                      0.00
!   C in returned senesced material               1103.84
!   CO2-C emitted                                                     1414.93
!                                                --------            --------
! TOTAL C BALANCE                                94902.34            94902.36
!   Balance                                                             0.023

*DSSAT Cropping System Model Ver. 4.8.0.019 -develop  DEC 23, 2021 14:23:48

*RUN  66        : TMS14F1311P0002           CSYCA048 UYAG1701   66
 MODEL          : CSYCA048 - Cassava
 EXPERIMENT     : UYAG1701 CS UYT_GXE
 DATA PATH      :
 TREATMENT 66   : TMS14F1311P0002           CSYCA048
  

!                                                 Initial               Final
!                                                Year/DOY            Year/DOY
!                                                2019-168            2019-168
! SOIL C BALANCE                                 --------- kg[C]/ha ---------
!  SOIL & SURFACE ORGANIC C
!   Soil Organic C                               93798.50            92383.59
!   Surface Organic C                                0.00                0.00
!   Soil Litter C                                    0.00              469.37
!   Surface Litter C                                 0.00              634.47
!                                                --------            --------
!   Total C in Soil and Surface Layers           93798.50            93487.43
!  ADDITIONS AND REMOVALS:
!   C in Harvest Residues from Previous              0.00
!   C from Organic Applications                      0.00
!   C in returned senesced material               1103.84
!   CO2-C emitted                                                     1414.93
!                                                --------            --------
! TOTAL C BALANCE                                94902.34            94902.36
!   Balance                                                             0.023

*DSSAT Cropping System Model Ver. 4.8.0.019 -develop  DEC 23, 2021 14:23:48

*RUN  67        : TMS14F1312P0003           CSYCA048 UYAG1701   67
 MODEL          : CSYCA048 - Cassava
 EXPERIMENT     : UYAG1701 CS UYT_GXE
 DATA PATH      :
 TREATMENT 67   : TMS14F1312P0003           CSYCA048
  

!                                                 Initial               Final
!                                                Year/DOY            Year/DOY
!                                                2019-168            2019-168
! SOIL C BALANCE                                 --------- kg[C]/ha ---------
!  SOIL & SURFACE ORGANIC C
!   Soil Organic C                               93798.50            92383.59
!   Surface Organic C                                0.00                0.00
!   Soil Litter C                                    0.00              469.37
!   Surface Litter C                                 0.00              634.47
!                                                --------            --------
!   Total C in Soil and Surface Layers           93798.50            93487.43
!  ADDITIONS AND REMOVALS:
!   C in Harvest Residues from Previous              0.00
!   C from Organic Applications                      0.00
!   C in returned senesced material               1103.84
!   CO2-C emitted                                                     1414.93
!                                                --------            --------
! TOTAL C BALANCE                                94902.34            94902.36
!   Balance                                                             0.023
