*SOIL-PLANT-ATMOSPHERE MODULE OUTPUT FILE

*DSSAT Cropping System Model Ver. 4.8.0.010 -develop  AUG 03, 2021 18:13:11

*RUN   1        : IITA-TMS-IBA000070        CSYCA048 UYAB1901    1
 MODEL          : CSYCA048 - Cassava
 EXPERIMENT     : UYAB1901 CS UYT_GXE
 DATA PATH      : C:\DSSAT48\CASSAVA\
 TREATMENT  1   : IITA-TMS-IBA000070        CSYCA048
  
!                                                                                                                                                                                        Soil evaporation (mm/d) by soil depth (cm):
!                                                                                                                                                                                        0-5    5-15   15-20   20-25   25-30   30-35   35-40   40-55   55-70  70-120
@YEAR DOY   DAS   SRAA  TMAXA  TMINA    REFA    EOAA    EOPA    EOSA    KCAA    KCBA    KEAA    ETAA    EPAA    ESAA    EFAA    EMAA    EOAC    ETAC    EPAC    ESAC    EFAC    EMAC    ES1D    ES2D    ES3D    ES4D    ES5D    ES6D    ES7D    ES8D    ES9D   ES10D   TRWUD
 2019 169     1  18.30  33.20  24.60 -99.000   5.402   0.000   5.402 -99.000 -99.000 -99.000   1.562   0.000   1.562   0.000   0.000    5.40    1.56    0.00    1.56    0.00    0.00   1.295   0.172   0.027   0.016   0.010   0.008   0.006   0.011   0.006   0.010   0.000
 2019 170     2  18.80  33.10  25.00 -99.000   5.532   0.000   5.532 -99.000 -99.000 -99.000   5.532   0.000   5.532   0.000   0.000   10.93    7.09    0.00    7.09    0.00    0.00   1.343   1.045   0.340   0.280   0.231   0.220   0.198   0.481   0.398   0.996   0.000
 2019 171     3  17.90  29.70  23.60 -99.000   5.073   0.000   5.073 -99.000 -99.000 -99.000   5.073   0.000   5.073   0.000   0.000   16.01   12.17    0.00   12.17    0.00    0.00   1.257   0.945   0.314   0.260   0.214   0.202   0.181   0.438   0.360   0.901   0.000
 2019 172     4  17.50  31.40  24.00 -99.000   5.042   0.000   5.042 -99.000 -99.000 -99.000   5.042   0.000   5.042   0.000   0.000   21.05   17.21    0.00   17.21    0.00    0.00   1.185   0.942   0.307   0.258   0.215   0.205   0.185   0.450   0.370   0.925   0.000
 2019 173     5  14.50  28.80  22.80 -99.000   4.011   0.000   4.011 -99.000 -99.000 -99.000   4.011   0.000   4.011   0.000   0.000   25.06   21.22    0.00   21.22    0.00    0.00   0.970   0.743   0.242   0.202   0.169   0.161   0.145   0.354   0.293   0.732   0.000
 2019 174     6  15.70  31.30  23.90 -99.000   4.532   0.000   4.532 -99.000 -99.000 -99.000   4.532   0.000   4.532   0.000   0.000   29.59   25.75    0.00   25.75    0.00    0.00   1.115   0.843   0.271   0.226   0.189   0.180   0.162   0.396   0.328   0.821   0.000
 2019 175     7  17.80  26.80  22.00 -99.000   4.802   0.000   4.802 -99.000 -99.000 -99.000   4.802   0.000   4.802   0.000   0.000   34.39   30.55    0.00   30.55    0.00    0.00   1.189   0.919   0.299   0.244   0.200   0.189   0.169   0.408   0.338   0.847   0.000
 2019 176     8  16.60  29.60  23.10 -99.000   4.686   0.000   4.686 -99.000 -99.000 -99.000   4.686   0.000   4.686   0.000   0.000   39.08   35.24    0.00   35.24    0.00    0.00   1.146   0.891   0.289   0.238   0.197   0.188   0.168   0.405   0.335   0.831   0.000
 2019 177     9  15.10  27.20  22.70 -99.000   4.114   0.000   4.114 -99.000 -99.000 -99.000   4.114   0.000   4.114   0.000   0.000   43.19   39.35    0.00   39.35    0.00    0.00   0.978   0.776   0.250   0.209   0.174   0.167   0.149   0.366   0.302   0.743   0.000
 2019 178    10  16.20  26.90  23.00 -99.000   4.408   0.000   4.408 -99.000 -99.000 -99.000   1.474   0.000   1.474   0.000   0.000   47.60   40.83    0.00   40.83    0.00    0.00   1.213   0.167   0.026   0.016   0.010   0.008   0.006   0.011   0.006   0.010   0.000
 2019 179    11  19.00  30.10  22.60 -99.000   5.313   0.000   5.313 -99.000 -99.000 -99.000   1.358   0.000   1.358   0.000   0.000   52.92   42.19    0.00   42.19    0.00    0.00   1.098   0.166   0.026   0.016   0.010   0.008   0.006   0.011   0.006   0.010   0.000
 2019 180    12  17.70  30.80  23.90 -99.000   5.012   0.000   5.012 -99.000 -99.000 -99.000   1.252   0.000   1.252   0.000   0.000   57.93   43.44    0.00   43.44    0.00    0.00   0.994   0.165   0.026   0.016   0.010   0.008   0.006   0.011   0.006   0.010   0.000
 2019 181    13  16.60  30.10  24.60 -99.000   4.671   0.000   4.671 -99.000 -99.000 -99.000   1.425   0.000   1.425   0.000   0.000   62.60   44.86    0.00   44.86    0.00    0.00   1.163   0.169   0.026   0.016   0.010   0.008   0.006   0.011   0.006   0.010   0.000
 2019 182    14  16.90  29.20  22.40 -99.000   4.714   0.000   4.714 -99.000 -99.000 -99.000   4.714   0.000   4.714   0.000   0.000   67.31   49.58    0.00   49.58    0.00    0.00   1.204   0.881   0.284   0.236   0.194   0.186   0.165   0.404   0.335   0.825   0.000
 2019 183    15  17.50  29.30  23.60 -99.000   4.934   0.011   4.923 -99.000 -99.000 -99.000   4.934   0.011   4.923   0.000   0.000   72.25   54.51    0.01   54.50    0.00    0.00   1.214   0.924   0.298   0.249   0.207   0.198   0.177   0.428   0.354   0.874   0.001
 2019 184    16  16.90  29.70  23.90 -99.000   4.764   0.031   4.733 -99.000 -99.000 -99.000   1.569   0.031   1.538   0.000   0.000   77.01   56.08    0.04   56.04    0.00    0.00   1.277   0.169   0.026   0.016   0.010   0.008   0.006   0.011   0.006   0.009   0.003
 2019 185    17  16.20  30.00  23.50 -99.000   4.570   0.056   4.513 -99.000 -99.000 -99.000   4.569   0.056   4.513   0.000   0.000   81.58   60.65    0.10   60.55    0.00    0.00   1.112   0.862   0.278   0.233   0.197   0.186   0.168   0.390   0.318   0.770   0.006
 2019 186    18  17.40  28.50  22.90 -99.000   4.833   0.090   4.742 -99.000 -99.000 -99.000   4.832   0.090   4.742   0.000   0.000   86.41   65.48    0.19   65.29    0.00    0.00   1.178   0.904   0.297   0.250   0.212   0.198   0.179   0.410   0.331   0.783   0.009
 2019 187    19  17.40  30.20  24.10 -99.000   4.955   0.142   4.811 -99.000 -99.000 -99.000   4.953   0.142   4.811   0.000   0.000   91.37   70.44    0.33   70.10    0.00    0.00   1.157   0.888   0.300   0.254   0.215   0.204   0.185   0.426   0.350   0.833   0.014
 2019 188    20  15.90  29.90  24.60 -99.000   4.497   0.182   4.313 -99.000 -99.000 -99.000   4.495   0.182   4.313   0.000   0.000   95.87   74.93    0.51   74.42    0.00    0.00   1.040   0.800   0.270   0.227   0.191   0.181   0.164   0.376   0.310   0.754   0.018
 2019 189    21  16.40  25.40  22.30 -99.000   4.357   0.236   4.117 -99.000 -99.000 -99.000   4.354   0.236   4.117   0.000   0.000  100.22   79.28    0.75   78.53    0.00    0.00   1.014   0.755   0.255   0.215   0.181   0.171   0.155   0.355   0.293   0.723   0.024
 2019 190    22  16.60  29.20  23.50 -99.000   4.615   0.318   4.293 -99.000 -99.000 -99.000   4.611   0.318   4.293   0.000   0.000  104.84   83.89    1.07   82.83    0.00    0.00   1.024   0.786   0.259   0.221   0.187   0.180   0.164   0.380   0.314   0.778   0.032
 2019 191    23  17.70  28.70  23.40 -99.000   4.863   0.398   4.461 -99.000 -99.000 -99.000   4.859   0.398   4.461   0.000   0.000  109.70   88.75    1.46   87.29    0.00    0.00   1.047   0.813   0.267   0.226   0.192   0.186   0.170   0.402   0.332   0.826   0.040
 2019 192    24  15.40  26.50  22.30 -99.000   4.085   0.397   3.683 -99.000 -99.000 -99.000   4.081   0.397   3.683   0.000   0.000  113.79   92.83    1.86   90.97    0.00    0.00   0.880   0.666   0.217   0.185   0.156   0.150   0.137   0.332   0.274   0.687   0.040
 2019 193    25  16.20  28.10  22.80 -99.000   4.386   0.497   3.884 -99.000 -99.000 -99.000   4.381   0.497   3.884   0.000   0.000  118.17   97.21    2.36   94.86    0.00    0.00   0.959   0.722   0.235   0.199   0.168   0.157   0.141   0.335   0.276   0.693   0.050
 2019 194    26  18.10  29.80  23.10 -99.000   5.013   0.649   4.357 -99.000 -99.000 -99.000   5.006   0.649   4.357   0.000   0.000  123.18  102.22    3.01   99.21    0.00    0.00   1.055   0.818   0.265   0.222   0.186   0.175   0.157   0.380   0.313   0.785   0.065
 2019 195    27  17.60  29.20  22.70 -99.000   4.789   0.691   4.089 -99.000 -99.000 -99.000   4.780   0.691   4.089   0.000   0.000  127.97  107.00    3.70  103.30    0.00    0.00   0.990   0.772   0.253   0.212   0.180   0.168   0.151   0.352   0.289   0.722   0.069
 2019 196    28  17.00  29.00  23.40 -99.000   4.653   0.745   3.901 -99.000 -99.000 -99.000   4.647   0.745   3.901   0.000   0.000  132.63  111.65    4.44  107.20    0.00    0.00   0.967   0.739   0.243   0.204   0.174   0.162   0.146   0.330   0.269   0.667   0.075
 2019 197    29  17.90  31.70  23.40 -99.000   5.029   0.884   4.137 -99.000 -99.000 -99.000   5.021   0.884   4.137   0.000   0.000  137.66  116.67    5.33  111.34    0.00    0.00   0.986   0.762   0.257   0.217   0.185   0.176   0.159   0.364   0.298   0.733   0.088
 2019 198    30  18.70  31.50  23.30 -99.000   5.199   0.995   4.193 -99.000 -99.000 -99.000   5.188   0.995   4.193   0.000   0.000  142.86  121.86    6.32  115.53    0.00    0.00   0.983   0.769   0.253   0.215   0.183   0.177   0.161   0.376   0.310   0.766   0.100
 2019 199    31  15.30  28.70  24.20 -99.000   4.142   0.867   3.265 -99.000 -99.000 -99.000   4.132   0.867   3.265   0.000   0.000  147.00  125.99    7.19  118.80    0.00    0.00   0.753   0.596   0.197   0.167   0.140   0.135   0.123   0.296   0.244   0.614   0.087
 2019 200    32  16.00  27.60  21.90 -99.000   4.188   0.938   3.238 -99.000 -99.000 -99.000   4.176   0.938   3.238   0.000   0.000  151.18  130.16    8.13  122.04    0.00    0.00   0.781   0.602   0.199   0.164   0.136   0.130   0.118   0.284   0.235   0.589   0.094
 2019 201    33  18.40  29.30  22.70 -99.000   4.961   1.196   3.751 -99.000 -99.000 -99.000   4.947   1.196   3.751   0.000   0.000  156.15  135.11    9.32  125.79    0.00    0.00   0.929   0.699   0.233   0.192   0.158   0.149   0.134   0.323   0.267   0.667   0.120
 2019 202    34  18.30  30.00  22.80 -99.000   4.942   1.271   3.659 -99.000 -99.000 -99.000   4.930   1.271   3.659   0.000   0.000  161.09  140.04   10.59  129.45    0.00    0.00   0.866   0.681   0.222   0.186   0.155   0.148   0.134   0.325   0.269   0.674   0.127
 2019 203    35  16.30  28.50  22.90 -99.000   4.310   1.175   3.124 -99.000 -99.000 -99.000   2.674   1.175   1.499   0.000   0.000  165.40  142.71   11.77  130.95    0.00    0.00   1.239   0.165   0.026   0.016   0.010   0.008   0.006   0.011   0.006   0.010   0.118
 2019 204    36  17.50  30.10  23.50 -99.000   4.718   1.360   3.346 -99.000 -99.000 -99.000   2.828   1.360   1.468   0.000   0.000  170.12  145.54   13.13  132.41    0.00    0.00   1.212   0.163   0.026   0.016   0.010   0.008   0.006   0.011   0.006   0.010   0.136
 2019 205    37  16.20  31.10  24.20 -99.000   4.416   1.339   3.061 -99.000 -99.000 -99.000   2.707   1.339   1.369   0.000   0.000  174.53  148.25   14.47  133.78    0.00    0.00   1.117   0.160   0.025   0.016   0.010   0.008   0.006   0.011   0.006   0.010   0.134
 2019 206    38  16.00  26.20  23.40 -99.000   4.090   1.306   2.770 -99.000 -99.000 -99.000   2.782   1.306   1.475   0.000   0.000  178.62  151.03   15.77  135.26    0.00    0.00   1.221   0.163   0.025   0.015   0.010   0.008   0.006   0.011   0.006   0.010   0.131
 2019 207    39  14.90  28.40  23.10 -99.000   3.917   1.311   2.589 -99.000 -99.000 -99.000   3.901   1.311   2.589   0.000   0.000  182.54  154.93   17.09  137.85    0.00    0.00   0.645   0.477   0.145   0.123   0.104   0.101   0.092   0.230   0.191   0.482   0.131
 2019 208    40  15.70  28.50  23.20 -99.000   4.115   1.446   2.653 -99.000 -99.000 -99.000   2.934   1.446   1.488   0.000   0.000  186.66  157.87   18.53  139.33    0.00    0.00   1.236   0.163   0.024   0.015   0.010   0.008   0.006   0.011   0.006   0.010   0.145
 2019 209    41  16.50  27.90  24.30 -99.000   4.304   1.577   2.706 -99.000 -99.000 -99.000   2.921   1.577   1.343   0.000   0.000  190.96  160.79   20.11  140.68    0.00    0.00   1.096   0.159   0.024   0.015   0.009   0.008   0.006   0.011   0.006   0.010   0.158
 2019 210    42  15.80  29.20  23.30 -99.000   4.126   1.582   2.528 -99.000 -99.000 -99.000   2.791   1.582   1.210   0.000   0.000  195.09  163.58   21.69  141.89    0.00    0.00   0.967   0.156   0.023   0.014   0.009   0.008   0.006   0.011   0.006   0.010   0.158
 2019 211    43  15.10  29.90  23.10 -99.000   3.948   1.574   2.356 -99.000 -99.000 -99.000   2.680   1.574   1.106   0.000   0.000  199.03  166.26   23.26  142.99    0.00    0.00   0.868   0.152   0.023   0.014   0.009   0.007   0.006   0.011   0.006   0.010   0.157
 2019 212    44  16.00  28.70  23.80 -99.000   4.133   1.711   2.401 -99.000 -99.000 -99.000   2.731   1.711   1.020   0.000   0.000  203.17  168.99   24.98  144.01    0.00    0.00   0.788   0.147   0.022   0.014   0.009   0.007   0.006   0.011   0.006   0.010   0.171
 2019 213    45  16.80  28.70  22.90 -99.000   4.294   1.845   2.428 -99.000 -99.000 -99.000   3.107   1.845   1.262   0.000   0.000  207.46  172.10   26.82  145.28    0.00    0.00   1.033   0.146   0.022   0.014   0.009   0.007   0.006   0.011   0.006   0.010   0.184
 2019 214    46  15.90  27.60  22.60 -99.000   4.048   1.798   2.227 -99.000 -99.000 -99.000   4.025   1.798   2.227   0.000   0.000  211.51  176.12   28.62  147.50    0.00    0.00   0.597   0.393   0.111   0.096   0.081   0.081   0.076   0.198   0.169   0.425   0.180
 2019 215    47  15.50  28.80  22.80 -99.000   4.007   1.840   2.146 -99.000 -99.000 -99.000   3.986   1.840   2.146   0.000   0.000  215.52  180.11   30.46  149.65    0.00    0.00   0.561   0.402   0.104   0.090   0.077   0.077   0.072   0.190   0.162   0.410   0.184
 2019 216    48  17.10  29.20  22.90 -99.000   4.417   2.091   2.303 -99.000 -99.000 -99.000   3.585   2.091   1.493   0.000   0.000  219.93  183.69   32.55  151.14    0.00    0.00   1.254   0.160   0.020   0.013   0.008   0.007   0.005   0.010   0.006   0.010   0.209
 2019 217    49  16.30  28.20  23.40 -99.000   4.158   2.024   2.110 -99.000 -99.000 -99.000   4.135   2.024   2.110   0.000   0.000  224.09  187.83   34.57  153.25    0.00    0.00   0.531   0.414   0.121   0.094   0.073   0.072   0.068   0.181   0.157   0.398   0.202
 2019 218    50  15.90  28.50  23.10 -99.000   4.077   2.045   2.013 -99.000 -99.000 -99.000   4.059   2.045   2.013   0.000   0.000  228.17  191.88   36.62  155.26    0.00    0.00   0.530   0.402   0.130   0.100   0.073   0.063   0.060   0.160   0.140   0.355   0.205
 2019 219    51  15.40  25.20  23.10 -99.000   3.799   1.951   1.824 -99.000 -99.000 -99.000   3.775   1.951   1.824   0.000   0.000  231.97  195.66   38.57  157.09    0.00    0.00   0.475   0.358   0.118   0.098   0.077   0.062   0.052   0.142   0.125   0.317   0.195
 2019 220    52  15.80  26.50  22.90 -99.000   3.939   2.082   1.833 -99.000 -99.000 -99.000   3.915   2.082   1.833   0.000   0.000  235.91  199.57   40.65  158.92    0.00    0.00   0.458   0.349   0.118   0.100   0.083   0.073   0.056   0.145   0.127   0.325   0.208
 2019 221    53  16.70  27.90  23.40 -99.000   4.224   2.284   1.913 -99.000 -99.000 -99.000   4.198   2.284   1.913   0.000   0.000  240.13  203.77   42.94  160.84    0.00    0.00   0.469   0.361   0.119   0.101   0.085   0.080   0.065   0.153   0.135   0.345   0.228
 2019 222    54  17.10  29.20  23.50 -99.000   4.378   2.417   1.931 -99.000 -99.000 -99.000   4.347   2.417   1.931   0.000   0.000  244.51  208.12   45.35  162.77    0.00    0.00   0.463   0.361   0.119   0.100   0.084   0.081   0.071   0.157   0.139   0.356   0.242
 2019 223    55  15.90  29.60  23.50 -99.000   4.073   2.301   1.743 -99.000 -99.000 -99.000   4.043   2.301   1.743   0.000   0.000  248.58  212.16   47.65  164.51    0.00    0.00   0.440   0.323   0.105   0.088   0.073   0.071   0.063   0.139   0.123   0.317   0.230
 2019 224    56  16.60  27.50  22.30 -99.000   4.130   2.384   1.714 -99.000 -99.000 -99.000   4.098   2.384   1.714   0.000   0.000  252.71  216.26   50.04  166.22    0.00    0.00   0.444   0.321   0.103   0.085   0.070   0.068   0.061   0.134   0.120   0.308   0.238
 2019 225    57  17.10  29.60  22.80 -99.000   4.350   2.569   1.750 -99.000 -99.000 -99.000   4.320   2.569   1.750   0.000   0.000  257.06  220.58   52.61  167.97    0.00    0.00   0.445   0.332   0.105   0.087   0.071   0.069   0.062   0.137   0.124   0.319   0.257
 2019 226    58  17.40  29.20  23.90 -99.000   4.432   2.672   1.728 -99.000 -99.000 -99.000   4.204   2.672   1.531   0.000   0.000  261.49  224.78   55.28  169.50    0.00    0.00   1.277   0.167   0.025   0.015   0.010   0.008   0.006   0.009   0.006   0.009   0.267
 2019 227    59  16.90  28.60  22.00 -99.000   4.200   2.572   1.593 -99.000 -99.000 -99.000   4.028   2.572   1.456   0.000   0.000  265.69  228.81   57.85  170.96    0.00    0.00   1.208   0.161   0.024   0.015   0.009   0.008   0.006   0.009   0.006   0.009   0.257
 2019 228    60  16.30  28.40  22.20 -99.000   4.042   2.531   1.481 -99.000 -99.000 -99.000   3.991   2.531   1.460   0.000   0.000  269.73  232.80   60.38  172.42    0.00    0.00   1.219   0.156   0.024   0.014   0.009   0.007   0.006   0.009   0.006   0.009   0.253
 2019 229    61  16.90  29.70  23.00 -99.000   4.266   2.722   1.516 -99.000 -99.000 -99.000   4.096   2.722   1.374   0.000   0.000  274.00  236.90   63.10  173.80    0.00    0.00   1.140   0.151   0.023   0.014   0.009   0.007   0.006   0.009   0.006   0.009   0.272
 2019 230    62  16.60  28.80  22.60 -99.000   4.122   2.669   1.421 -99.000 -99.000 -99.000   4.090   2.669   1.421   0.000   0.000  278.12  240.99   65.77  175.22    0.00    0.00   1.176   0.160   0.025   0.015   0.009   0.007   0.005   0.009   0.006   0.009   0.267
 2019 231    63  16.00  28.10  22.50 -99.000   3.953   2.601   1.316 -99.000 -99.000 -99.000   3.917   2.601   1.316   0.000   0.000  282.07  244.91   68.37  176.53    0.00    0.00   0.335   0.256   0.087   0.073   0.057   0.051   0.042   0.095   0.088   0.233   0.260
 2019 232    64  16.80  29.90  23.80 -99.000   4.260   2.856   1.371 -99.000 -99.000 -99.000   4.227   2.856   1.371   0.000   0.000  286.34  249.13   71.23  177.90    0.00    0.00   0.343   0.263   0.086   0.072   0.060   0.056   0.048   0.101   0.094   0.248   0.286
 2019 233    65  16.00  29.50  23.20 -99.000   4.012   2.737   1.247 -99.000 -99.000 -99.000   3.983   2.737   1.247   0.000   0.000  290.35  253.12   73.97  179.15    0.00    0.00   0.314   0.241   0.079   0.066   0.056   0.052   0.047   0.092   0.082   0.218   0.274
 2019 234    66  17.50  29.10  22.50 -99.000   4.349   3.019   1.300 -99.000 -99.000 -99.000   4.319   3.019   1.300   0.000   0.000  294.70  257.44   76.99  180.45    0.00    0.00   0.331   0.246   0.083   0.070   0.059   0.056   0.050   0.101   0.082   0.221   0.302
 2019 235    67  14.80  28.40  22.80 -99.000   3.649   2.557   1.060 -99.000 -99.000 -99.000   3.617   2.557   1.060   0.000   0.000  298.35  261.05   79.54  181.51    0.00    0.00   0.266   0.201   0.067   0.056   0.048   0.045   0.041   0.090   0.070   0.177   0.256
 2019 236    68  15.70  28.50  22.60 -99.000   3.867   2.752   1.087 -99.000 -99.000 -99.000   3.839   2.752   1.087   0.000   0.000  302.21  264.89   82.29  182.60    0.00    0.00   0.268   0.202   0.068   0.057   0.049   0.046   0.042   0.096   0.077   0.183   0.275
 2019 237    69  17.80  28.40  22.90 -99.000   4.378   3.156   1.191 -99.000 -99.000 -99.000   4.347   3.156   1.191   0.000   0.000  306.59  269.24   85.45  183.79    0.00    0.00   0.296   0.218   0.073   0.062   0.052   0.050   0.045   0.104   0.086   0.205   0.316
 2019 238    70  17.50  29.30  22.50 -99.000   4.330   3.157   1.140 -99.000 -99.000 -99.000   4.297   3.157   1.140   0.000   0.000  310.92  273.54   88.61  184.93    0.00    0.00   0.278   0.210   0.068   0.057   0.048   0.046   0.042   0.101   0.083   0.206   0.316
 2019 239    71  16.40  26.80  22.60 -99.000   3.939   2.912   0.998 -99.000 -99.000 -99.000   3.911   2.912   0.998   0.000   0.000  314.86  277.45   91.52  185.93    0.00    0.00   0.248   0.182   0.059   0.049   0.041   0.040   0.036   0.088   0.072   0.182   0.291
 2019 240    72  16.40  29.90  22.80 -99.000   4.079   3.047   1.000 -99.000 -99.000 -99.000   4.047   3.047   1.000   0.000   0.000  318.94  281.49   94.57  186.93    0.00    0.00   0.258   0.183   0.059   0.049   0.041   0.039   0.035   0.086   0.071   0.180   0.305
 2019 241    73  18.30  31.10  22.70 -99.000   4.604   3.468   1.104 -99.000 -99.000 -99.000   4.572   3.468   1.104   0.000   0.000  323.54  286.07   98.04  188.03    0.00    0.00   0.288   0.203   0.065   0.054   0.045   0.042   0.038   0.094   0.078   0.198   0.347
 2019 242    74  16.30  30.60  23.20 -99.000   4.086   3.116   0.935 -99.000 -99.000 -99.000   4.051   3.116   0.935   0.000   0.000  327.63  290.12  101.15  188.97    0.00    0.00   0.235   0.174   0.056   0.047   0.038   0.036   0.032   0.080   0.067   0.171   0.312
 2019 243    75  16.50  28.40  23.30 -99.000   4.029   3.126   0.867 -99.000 -99.000 -99.000   3.993   3.126   0.867   0.000   0.000  331.66  294.11  104.28  189.83    0.00    0.00   0.216   0.163   0.053   0.044   0.037   0.035   0.031   0.074   0.061   0.153   0.313
 2019 244    76  18.60  29.20  23.20 -99.000   4.569   3.633   0.897 -99.000 -99.000 -99.000   4.531   3.633   0.897   0.000   0.000  336.23  298.64  107.91  190.73    0.00    0.00   0.219   0.168   0.054   0.045   0.038   0.036   0.033   0.078   0.064   0.161   0.363
 2019 245    77  17.10  28.80  23.50 -99.000   4.174   3.401   0.746 -99.000 -99.000 -99.000   4.147   3.401   0.746   0.000   0.000  340.40  302.79  111.31  191.48    0.00    0.00   0.180   0.138   0.045   0.037   0.031   0.030   0.027   0.066   0.054   0.137   0.340
 2019 246    78  17.30  30.60  23.30 -99.000   4.285   3.562   0.688 -99.000 -99.000 -99.000   4.250   3.562   0.688   0.000   0.000  344.69  307.04  114.87  192.16    0.00    0.00   0.172   0.126   0.041   0.034   0.028   0.027   0.025   0.060   0.049   0.126   0.356
 2019 247    79  17.10  30.80  23.50 -99.000   4.243   3.584   0.615 -99.000 -99.000 -99.000   4.199   3.584   0.615   0.000   0.000  348.93  311.24  118.46  192.78    0.00    0.00   0.158   0.115   0.037   0.031   0.026   0.024   0.021   0.052   0.042   0.108   0.358
 2019 248    80  17.70  29.20  22.80 -99.000   4.285   3.687   0.552 -99.000 -99.000 -99.000   4.240   3.687   0.552   0.000   0.000  353.21  315.48  122.15  193.33    0.00    0.00   0.138   0.104   0.034   0.029   0.024   0.022   0.020   0.047   0.038   0.097   0.369
 2019 249    81  18.00  30.70  23.10 -99.000   4.427   3.884   0.504 -99.000 -99.000 -99.000   4.388   3.884   0.504   0.000   0.000  357.64  319.86  126.03  193.84    0.00    0.00   0.120   0.091   0.031   0.026   0.022   0.021   0.019   0.044   0.037   0.092   0.388
 2019 250    82  17.50  30.80  23.20 -99.000   4.301   3.817   0.441 -99.000 -99.000 -99.000   4.258   3.817   0.441   0.000   0.000  361.94  324.12  129.85  194.28    0.00    0.00   0.108   0.080   0.027   0.023   0.019   0.018   0.016   0.038   0.032   0.080   0.382
 2019 251    83  16.30  29.50  22.50 -99.000   3.926   3.526   0.363 -99.000 -99.000 -99.000   3.889   3.526   0.363   0.000   0.000  365.87  328.01  133.37  194.64    0.00    0.00   0.090   0.066   0.022   0.018   0.015   0.015   0.013   0.032   0.026   0.066   0.353
 2019 252    84  17.00  29.10  22.00 -99.000   4.056   3.675   0.345 -99.000 -99.000 -99.000   4.020   3.675   0.345   0.000   0.000  369.92  332.03  137.05  194.98    0.00    0.00   0.086   0.064   0.021   0.017   0.015   0.014   0.013   0.029   0.024   0.061   0.368
 2019 253    85  17.40  29.70  22.50 -99.000   4.191   3.821   0.333 -99.000 -99.000 -99.000   4.154   3.821   0.333   0.000   0.000  374.11  336.19  140.87  195.32    0.00    0.00   0.083   0.062   0.020   0.017   0.014   0.013   0.012   0.029   0.024   0.059   0.382
 2019 254    86  17.50  28.50  23.40 -99.000   4.184   3.837   0.308 -99.000 -99.000 -99.000   4.144   3.837   0.307   0.000   0.000  378.30  340.33  144.71  195.62    0.00    0.00   0.076   0.057   0.019   0.016   0.013   0.012   0.011   0.027   0.022   0.054   0.384
 2019 255    87  17.30  30.40  23.10 -99.000   4.210   3.874   0.297 -99.000 -99.000 -99.000   4.170   3.874   0.296   0.000   0.000  382.51  344.50  148.58  195.92    0.00    0.00   0.071   0.054   0.018   0.015   0.013   0.012   0.011   0.026   0.022   0.054   0.387
 2019 256    88  16.90  31.00  24.20 -99.000   4.168   3.834   0.290 -99.000 -99.000 -99.000   4.123   3.834   0.289   0.000   0.000  386.68  348.62  152.41  196.21    0.00    0.00   0.071   0.052   0.017   0.015   0.012   0.012   0.011   0.025   0.021   0.052   0.383
 2019 257    89  17.00  30.90  23.00 -99.000   4.154   3.817   0.297 -99.000 -99.000 -99.000   4.110   3.817   0.294   0.000   0.000  390.83  352.73  156.23  196.50    0.00    0.00   0.075   0.053   0.018   0.015   0.012   0.012   0.011   0.025   0.021   0.052   0.382
 2019 258    90  17.80  29.90  23.40 -99.000   4.316   3.975   0.311 -99.000 -99.000 -99.000   4.280   3.975   0.306   0.000   0.000  395.15  357.01  160.21  196.81    0.00    0.00   0.077   0.056   0.018   0.015   0.013   0.012   0.011   0.026   0.022   0.055   0.397
 2019 259    91  15.80  28.60  22.60 -99.000   3.754   3.450   0.271 -99.000 -99.000 -99.000   3.716   3.450   0.265   0.000   0.001  398.90  360.73  163.66  197.07    0.00    0.00   0.066   0.049   0.016   0.013   0.011   0.011   0.010   0.023   0.019   0.047   0.345
 2019 260    92  16.50  30.60  22.80 -99.000   4.012   3.687   0.289 -99.000 -99.000 -99.000   3.969   3.687   0.281   0.000   0.001  402.91  364.70  167.34  197.35    0.00    0.00   0.067   0.051   0.017   0.015   0.012   0.012   0.011   0.025   0.021   0.050   0.369
 2019 261    93  18.10  30.80  23.50 -99.000   4.431   4.065   0.329 -99.000 -99.000 -99.000   4.385   4.065   0.318   0.000   0.002  407.34  369.08  171.41  197.67    0.00    0.00   0.077   0.058   0.019   0.016   0.014   0.013   0.012   0.028   0.023   0.058   0.407
 2019 262    94  16.10  29.20  21.90 -99.000   3.831   3.510   0.288 -99.000 -99.000 -99.000   3.788   3.510   0.276   0.000   0.002  411.17  372.87  174.92  197.95    0.00    0.01   0.068   0.050   0.017   0.014   0.012   0.011   0.010   0.024   0.020   0.050   0.351
 2019 263    95  20.10  31.20  22.30 -99.000   4.899   4.493   0.367 -99.000 -99.000 -99.000   4.846   4.493   0.350   0.000   0.003  416.07  377.72  179.41  198.30    0.00    0.01   0.085   0.064   0.021   0.018   0.015   0.014   0.013   0.031   0.026   0.064   0.449
 2019 264    96  19.50  30.80  22.50 -99.000   4.737   4.344   0.356 -99.000 -99.000 -99.000   4.684   4.344   0.337   0.000   0.003  420.81  382.40  183.75  198.64    0.00    0.01   0.084   0.062   0.020   0.017   0.014   0.013   0.012   0.029   0.024   0.061   0.434
 2019 265    97  20.00  31.50  22.40 -99.000   4.893   4.480   0.375 -99.000 -99.000 -99.000   4.837   4.480   0.353   0.000   0.005  425.70  387.24  188.23  198.99    0.00    0.02   0.090   0.065   0.021   0.018   0.015   0.014   0.012   0.030   0.025   0.063   0.448
 2019 266    98  17.70  32.10  23.40 -99.000   4.386   4.013   0.334 -99.000 -99.000 -99.000   4.331   4.013   0.312   0.000   0.005  430.09  391.57  192.25  199.30    0.00    0.02   0.080   0.058   0.019   0.016   0.013   0.012   0.011   0.027   0.022   0.055   0.401
 2019 267    99  18.00  30.90  24.00 -99.000   4.425   4.043   0.343 -99.000 -99.000 -99.000   4.367   4.043   0.318   0.000   0.006  434.51  395.94  196.29  199.62    0.00    0.03   0.081   0.060   0.020   0.016   0.014   0.013   0.011   0.027   0.022   0.055   0.404
 2019 268   100  19.60  32.20  23.20 -99.000   4.856   4.429   0.375 -99.000 -99.000 -99.000   4.782   4.429   0.346   0.000   0.007  439.37  400.72  200.72  199.96    0.00    0.04   0.086   0.065   0.021   0.018   0.015   0.014   0.013   0.030   0.025   0.059   0.443
 2019 269   101  18.40  30.20  22.80 -99.000   4.450   4.059   0.346 -99.000 -99.000 -99.000   4.385   4.059   0.317   0.000   0.008  443.82  405.10  204.78  200.28    0.00    0.04   0.079   0.059   0.019   0.016   0.014   0.013   0.012   0.027   0.023   0.055   0.406
 2019 270   102  17.30  29.50  22.30 -99.000   4.138   3.777   0.323 -99.000 -99.000 -99.000   4.080   3.777   0.293   0.000   0.009  447.96  409.18  208.56  200.57    0.00    0.05   0.072   0.054   0.018   0.015   0.013   0.012   0.011   0.025   0.021   0.052   0.378
 2019 271   103  19.60  31.70  22.10 -99.000   4.792   4.370   0.374 -99.000 -99.000 -99.000   4.719   4.370   0.339   0.000   0.010  452.75  413.90  212.93  200.91    0.00    0.06   0.083   0.063   0.021   0.017   0.015   0.014   0.012   0.030   0.025   0.060   0.437
 2019 272   104  18.20  31.50  22.70 -99.000   4.458   4.065   0.352 -99.000 -99.000 -99.000   4.392   4.065   0.316   0.000   0.011  457.21  418.29  216.99  201.23    0.00    0.07   0.078   0.057   0.019   0.016   0.014   0.013   0.012   0.027   0.023   0.056   0.406
 2019 273   105  17.40  31.20  23.60 -99.000   4.275   3.900   0.335 -99.000 -99.000 -99.000   4.210   3.900   0.299   0.000   0.012  461.48  422.51  220.89  201.53    0.00    0.09   0.074   0.054   0.018   0.015   0.013   0.012   0.011   0.026   0.021   0.054   0.390
 2019 274   106  17.90  31.20  23.40 -99.000   4.389   4.025   0.330 -99.000 -99.000 -99.000   4.329   4.025   0.291   0.000   0.013  465.87  426.83  224.92  201.82    0.00    0.10   0.072   0.054   0.018   0.015   0.013   0.012   0.011   0.025   0.021   0.051   0.402
 2019 275   107  17.00  28.90  23.30 -99.000   4.063   3.734   0.293 -99.000 -99.000 -99.000   4.003   3.734   0.255   0.000   0.014  469.93  430.84  228.65  202.07    0.00    0.11   0.063   0.048   0.016   0.013   0.011   0.010   0.009   0.022   0.018   0.044   0.373
 2019 276   108  17.10  29.50  22.60 -99.000   4.090   3.772   0.280 -99.000 -99.000 -99.000   4.028   3.772   0.241   0.000   0.016  474.02  434.87  232.42  202.31    0.00    0.13   0.059   0.045   0.015   0.012   0.010   0.010   0.009   0.021   0.017   0.043   0.377
 2019 277   109  17.90  29.90  23.50 -99.000   4.325   4.003   0.280 -99.000 -99.000 -99.000   4.259   4.003   0.238   0.000   0.017  478.35  439.12  236.42  202.55    0.00    0.15   0.059   0.044   0.014   0.012   0.010   0.010   0.009   0.020   0.017   0.042   0.400
 2019 278   110  18.00  30.80  23.00 -99.000   4.373   4.064   0.269 -99.000 -99.000 -99.000   4.308   4.064   0.225   0.000   0.019  482.72  443.43  240.49  202.78    0.00    0.17   0.054   0.042   0.013   0.011   0.010   0.009   0.008   0.020   0.016   0.041   0.406
 2019 279   111  17.20  29.20  22.10 -99.000   4.078   3.806   0.236 -99.000 -99.000 -99.000   4.018   3.806   0.194   0.000   0.018  486.80  447.45  244.29  202.97    0.00    0.18   0.049   0.036   0.012   0.010   0.008   0.008   0.007   0.017   0.014   0.035   0.381
 2019 280   112  15.90  28.90  22.30 -99.000   3.763   3.517   0.212 -99.000 -99.000 -99.000   3.707   3.517   0.166   0.000   0.023  490.56  451.16  247.81  203.14    0.00    0.21   0.042   0.031   0.010   0.008   0.007   0.007   0.006   0.014   0.011   0.029   0.352
 2019 281   113  16.90  29.00  22.60 -99.000   4.011   3.744   0.225 -99.000 -99.000 -99.000   3.944   3.744   0.174   0.000   0.026  494.58  455.10  251.56  203.31    0.00    0.23   0.044   0.033   0.011   0.009   0.008   0.007   0.006   0.015   0.012   0.030   0.374
 2019 282   114  15.60  31.20  22.60 -99.000   3.790   3.538   0.219 -99.000 -99.000 -99.000   3.730   3.538   0.165   0.000   0.027  498.37  458.83  255.09  203.48    0.00    0.26   0.041   0.030   0.010   0.009   0.007   0.007   0.006   0.014   0.012   0.029   0.354
 2019 283   115  16.60  31.40  22.60 -99.000   4.040   3.770   0.240 -99.000 -99.000 -99.000   3.978   3.770   0.176   0.000   0.032  502.41  462.81  258.86  203.65    0.00    0.29   0.044   0.032   0.011   0.009   0.008   0.007   0.007   0.015   0.013   0.031   0.377
 2019 284   116  17.40  30.50  22.70 -99.000   4.198   3.913   0.254 -99.000 -99.000 -99.000   4.131   3.913   0.182   0.000   0.036  506.60  466.94  262.78  203.83    0.00    0.33   0.045   0.033   0.011   0.009   0.008   0.007   0.007   0.016   0.013   0.033   0.391
 2019 285   117  17.70  31.80  21.90 -99.000   4.303   4.007   0.258 -99.000 -99.000 -99.000   4.226   4.007   0.180   0.000   0.039  510.91  471.17  266.78  204.01    0.00    0.37   0.044   0.033   0.011   0.009   0.008   0.007   0.007   0.016   0.013   0.032   0.401
 2019 286   118  17.30  31.70  22.30 -99.000   4.213   3.912   0.257 -99.000 -99.000 -99.000   4.128   3.912   0.175   0.000   0.041  515.12  475.29  270.70  204.19    0.00    0.41   0.041   0.032   0.011   0.009   0.008   0.007   0.007   0.015   0.013   0.032   0.391
 2019 287   119  18.00  32.10  22.60 -99.000   4.409   4.094   0.271 -99.000 -99.000 -99.000   4.320   4.094   0.180   0.000   0.046  519.53  479.61  274.79  204.37    0.00    0.45   0.043   0.033   0.011   0.009   0.008   0.007   0.007   0.016   0.013   0.033   0.409
 2019 288   120  16.40  32.10  23.60 -99.000   4.045   3.751   0.254 -99.000 -99.000 -99.000   3.961   3.751   0.165   0.000   0.045  523.57  483.57  278.54  204.53    0.00    0.50   0.041   0.030   0.010   0.008   0.007   0.007   0.006   0.014   0.012   0.030   0.375
 2019 289   121  18.70  28.30  22.70 -99.000   4.400   4.074   0.282 -99.000 -99.000 -99.000   4.304   4.074   0.178   0.000   0.052  527.97  487.88  282.62  204.71    0.00    0.55   0.044   0.033   0.011   0.009   0.008   0.007   0.007   0.015   0.013   0.031   0.407
 2019 290   122  15.50  31.60  23.00 -99.000   3.785   3.512   0.242 -99.000 -99.000 -99.000   3.707   3.512   0.149   0.000   0.046  531.76  491.58  286.13  204.86    0.00    0.60   0.037   0.027   0.009   0.008   0.007   0.006   0.006   0.013   0.011   0.026   0.351
 2019 291   123  17.00  29.60  22.80 -99.000   4.058   3.757   0.267 -99.000 -99.000 -99.000   3.971   3.757   0.161   0.000   0.053  535.82  495.56  289.88  205.02    0.00    0.65   0.040   0.029   0.010   0.008   0.007   0.007   0.006   0.014   0.011   0.029   0.376
 2019 292   124  16.60  30.10  23.10 -99.000   3.992   3.685   0.266 -99.000 -99.000 -99.000   3.897   3.685   0.157   0.000   0.055  539.81  499.45  293.57  205.18    0.00    0.70   0.039   0.029   0.010   0.008   0.007   0.006   0.006   0.013   0.011   0.028   0.369
 2019 293   125  16.70  31.30  22.90 -99.000   4.060   3.758   0.269 -99.000 -99.000 -99.000   3.969   3.758   0.155   0.000   0.057  543.87  503.42  297.33  205.33    0.00    0.76   0.039   0.028   0.010   0.008   0.007   0.006   0.006   0.013   0.011   0.027   0.376
 2019 294   126  18.00  31.50  22.50 -99.000   4.373   4.032   0.306 -99.000 -99.000 -99.000   4.271   4.032   0.172   0.000   0.067  548.24  507.69  301.36  205.51    0.00    0.83   0.043   0.032   0.011   0.009   0.008   0.007   0.006   0.015   0.012   0.030   0.403
 2019 295   127  17.90  31.50  23.10 -99.000   4.366   4.030   0.306 -99.000 -99.000 -99.000   4.267   4.030   0.168   0.000   0.069  552.61  511.96  305.39  205.67    0.00    0.90   0.041   0.031   0.010   0.009   0.007   0.007   0.006   0.015   0.012   0.030   0.403
 2019 296   128  17.30  31.80  22.60 -99.000   4.217   3.880   0.302 -99.000 -99.000 -99.000   4.112   3.880   0.161   0.000   0.070  556.83  516.07  309.27  205.84    0.00    0.97   0.039   0.030   0.010   0.008   0.007   0.006   0.006   0.014   0.012   0.029   0.388
 2019 297   129  17.70  28.60  22.90 -99.000   4.177   3.846   0.295 -99.000 -99.000 -99.000   4.070   3.846   0.153   0.000   0.071  561.00  520.14  313.12  205.99    0.00    1.04   0.038   0.028   0.009   0.008   0.007   0.006   0.006   0.013   0.011   0.027   0.385
 2019 298   130  17.40  32.60  22.90 -99.000   4.284   3.946   0.305 -99.000 -99.000 -99.000   4.176   3.946   0.155   0.000   0.075  565.29  524.32  317.06  206.14    0.00    1.11   0.039   0.029   0.010   0.008   0.007   0.006   0.006   0.013   0.011   0.027   0.395
 2019 299   131  17.90  30.80  23.80 -99.000   4.351   4.008   0.308 -99.000 -99.000 -99.000   4.238   4.008   0.153   0.000   0.077  569.64  528.56  321.07  206.30    0.00    1.19   0.038   0.028   0.009   0.008   0.007   0.006   0.006   0.013   0.011   0.027   0.401
 2019 300   132  16.10  29.10  22.40 -99.000   3.805   3.486   0.283 -99.000 -99.000 -99.000   3.696   3.486   0.138   0.000   0.072  573.44  532.25  324.56  206.44    0.00    1.26   0.034   0.025   0.008   0.007   0.006   0.006   0.005   0.012   0.010   0.025   0.349
 2019 301   133  17.30  29.10  22.20 -99.000   4.081   3.742   0.298 -99.000 -99.000 -99.000   3.962   3.742   0.141   0.000   0.078  577.52  536.22  328.30  206.58    0.00    1.34   0.035   0.026   0.009   0.007   0.006   0.006   0.005   0.012   0.010   0.025   0.374
 2019 302   134  18.90  32.10  23.00 -99.000   4.629   4.241   0.354 -99.000 -99.000 -99.000   4.500   4.241   0.164   0.000   0.095  582.15  540.72  332.54  206.74    0.00    1.44   0.039   0.030   0.010   0.009   0.007   0.007   0.006   0.014   0.012   0.030   0.424
 2019 303   135  18.80  33.60  22.60 -99.000   4.661   4.253   0.372 -99.000 -99.000 -99.000   4.523   4.253   0.168   0.000   0.102  586.81  545.24  336.79  206.91    0.00    1.54   0.041   0.031   0.010   0.009   0.007   0.007   0.006   0.015   0.012   0.031   0.425
 2019 304   136  18.80  31.50  22.80 -99.000   4.566   4.190   0.347 -99.000 -99.000 -99.000   4.439   4.190   0.153   0.000   0.097  591.38  549.68  340.98  207.06    0.00    1.63   0.037   0.028   0.009   0.008   0.007   0.006   0.006   0.013   0.011   0.028   0.419
 2019 305   137  18.60  32.70  22.50 -99.000   4.565   4.204   0.332 -99.000 -99.000 -99.000   4.441   4.204   0.144   0.000   0.094  595.95  554.12  345.19  207.21    0.00    1.73   0.036   0.026   0.009   0.007   0.006   0.006   0.005   0.012   0.010   0.026   0.420
 2019 306   138  18.90  31.10  22.80 -99.000   4.571   4.235   0.299 -99.000 -99.000 -99.000   4.448   4.235   0.127   0.000   0.086  600.52  558.57  349.42  207.33    0.00    1.81   0.031   0.023   0.008   0.006   0.006   0.005   0.005   0.011   0.009   0.023   0.424
 2019 307   139  18.10  32.50  22.80 -99.000   4.442   4.148   0.257 -99.000 -99.000 -99.000   4.329   4.148   0.106   0.000   0.076  604.96  562.90  353.57  207.44    0.00    1.89   0.026   0.020   0.006   0.005   0.004   0.004   0.004   0.009   0.008   0.019   0.415
 2019 308   140  18.00  32.90  22.40 -99.000   4.422   4.149   0.242 -99.000 -99.000 -99.000   4.318   4.149   0.097   0.000   0.073  609.38  567.21  357.72  207.54    0.00    1.96   0.023   0.018   0.006   0.005   0.004   0.004   0.004   0.009   0.007   0.018   0.415
 2019 309   141  18.60  33.60  23.20 -99.000   4.627   4.365   0.228 -99.000 -99.000 -99.000   4.523   4.365   0.087   0.000   0.070  614.01  571.74  362.08  207.62    0.00    2.03   0.021   0.016   0.005   0.004   0.004   0.003   0.003   0.008   0.006   0.016   0.437
 2019 310   142  18.30  33.70  22.60 -99.000   4.538   4.298   0.204 -99.000 -99.000 -99.000   4.437   4.298   0.074   0.000   0.065  618.54  576.17  366.38  207.70    0.00    2.10   0.017   0.014   0.004   0.004   0.003   0.003   0.003   0.007   0.006   0.014   0.430
 2019 311   143  18.40  34.30  21.60 -99.000   4.559   4.336   0.188 -99.000 -99.000 -99.000   4.462   4.336   0.064   0.000   0.062  623.10  580.64  370.72  207.76    0.00    2.16   0.053   0.007   0.001   0.001   0.000   0.000   0.000   0.000   0.000   0.000   0.434
 2019 312   144  19.10  34.00  22.70 -99.000   4.753   4.537   0.182 -99.000 -99.000 -99.000   4.657   4.537   0.057   0.000   0.062  627.86  585.29  375.25  207.82    0.00    2.22   0.047   0.006   0.001   0.001   0.000   0.000   0.000   0.000   0.000   0.000   0.454
 2019 313   145  18.90  34.30  22.80 -99.000   4.719   4.486   0.198 -99.000 -99.000 -99.000   4.614   4.486   0.063   0.000   0.065  632.57  589.91  379.74  207.88    0.00    2.29   0.051   0.007   0.001   0.001   0.000   0.000   0.000   0.001   0.000   0.000   0.449
 2019 314   146  18.10  32.30  22.60 -99.000   4.418   4.181   0.202 -99.000 -99.000 -99.000   4.308   4.181   0.053   0.000   0.075  636.99  594.22  383.92  207.93    0.00    2.36   0.044   0.006   0.001   0.000   0.000   0.000   0.000   0.000   0.000   0.000   0.418
 2019 315   147  17.80  32.60  22.90 -99.000   4.368   4.145   0.192 -99.000 -99.000 -99.000   4.263   4.145   0.043   0.000   0.074  641.36  598.48  388.07  207.98    0.00    2.44   0.012   0.008   0.002   0.002   0.002   0.002   0.001   0.004   0.003   0.008   0.415
 2019 316   148  16.10  32.00  21.60 -99.000   3.889   3.669   0.187 -99.000 -99.000 -99.000   3.781   3.669   0.037   0.000   0.075  645.25  602.26  391.74  208.01    0.00    2.51   0.010   0.007   0.002   0.002   0.001   0.001   0.001   0.003   0.003   0.007   0.367
 2019 317   149  19.00  33.00  22.10 -99.000   4.652   4.388   0.227 -99.000 -99.000 -99.000   4.520   4.388   0.038   0.000   0.094  649.90  606.78  396.12  208.05    0.00    2.60   0.010   0.007   0.002   0.002   0.001   0.001   0.001   0.003   0.003   0.007   0.439
 2019 318   150  19.10  32.80  22.90 -99.000   4.690   4.410   0.247 -99.000 -99.000 -99.000   4.551   4.410   0.036   0.000   0.106  654.59  611.33  400.53  208.09    0.00    2.71   0.030   0.004   0.001   0.000   0.000   0.000   0.000   0.000   0.000   0.000   0.441
 2019 319   151  19.60  33.70  21.00 -99.000   4.795   4.532   0.234 -99.000 -99.000 -99.000   4.663   4.532   0.028   0.000   0.103  659.39  615.99  405.07  208.12    0.00    2.81   0.023   0.003   0.000   0.000   0.000   0.000   0.000   0.000   0.000   0.000   0.453
 2019 320   152  19.00  34.10  21.80 -99.000   4.693   4.436   0.219 -99.000 -99.000 -99.000   4.557   4.436   0.022   0.000   0.099  664.08  620.55  409.50  208.14    0.00    2.91   0.018   0.002   0.000   0.000   0.000   0.000   0.000   0.000   0.000   0.000   0.444
 2019 321   153  19.30  34.20  22.40 -99.000   4.787   4.491   0.259 -99.000 -99.000 -99.000   4.631   4.491   0.020   0.000   0.119  668.87  625.18  413.99  208.16    0.00    3.03   0.017   0.002   0.000   0.000   0.000   0.000   0.000   0.000   0.000   0.000   0.449
 2019 322   154  19.60  34.80  22.20 -99.000   4.883   4.573   0.272 -99.000 -99.000 -99.000   4.716   4.573   0.014   0.000   0.129  673.75  629.90  418.57  208.17    0.00    3.16   0.012   0.002   0.000   0.000   0.000   0.000   0.000   0.000   0.000   0.000   0.457
 2019 323   155  18.90  34.90  22.30 -99.000   4.713   4.395   0.286 -99.000 -99.000 -99.000   4.542   4.395   0.009   0.000   0.138  678.46  634.44  422.96  208.18    0.00    3.30   0.007   0.001   0.000   0.000   0.000   0.000   0.000   0.000   0.000   0.000   0.440
 2019 324   156  17.60  33.40  22.50 -99.000   4.327   4.037   0.260 -99.000 -99.000 -99.000   4.167   4.037   0.024   0.000   0.106  682.79  638.61  427.00  208.21    0.00    3.40   0.020   0.003   0.000   0.000   0.000   0.000   0.000   0.000   0.000   0.000   0.404
 2019 325   157  17.60  33.00  21.60 -99.000   4.282   3.989   0.260 -99.000 -99.000 -99.000   4.121   3.989   0.000   0.000   0.132  687.07  642.73  430.99  208.21    0.00    3.54   0.000   0.000   0.000   0.000   0.000   0.000   0.000   0.000   0.000   0.000   0.399
 2019 326   158  17.70  33.50  23.20 -99.000   4.376   4.077   0.267 -99.000 -99.000 -99.000   4.215   4.077   0.000   0.000   0.138  691.45  646.94  435.07  208.21    0.00    3.67   0.000   0.000   0.000   0.000   0.000   0.000   0.000   0.000   0.000   0.000   0.408
 2019 327   159  18.60  34.60  22.10 -99.000   4.615   4.303   0.282 -99.000 -99.000 -99.000   4.451   4.303   0.000   0.000   0.148  696.06  651.40  439.37  208.21    0.00    3.82   0.000   0.000   0.000   0.000   0.000   0.000   0.000   0.000   0.000   0.000   0.430
 2019 328   160  18.00  34.70  21.80 -99.000   4.460   4.151   0.275 -99.000 -99.000 -99.000   4.297   4.151   0.000   0.000   0.146  700.52  655.69  443.52  208.21    0.00    3.97   0.000   0.000   0.000   0.000   0.000   0.000   0.000   0.000   0.000   0.000   0.415
 2019 329   161  18.60  34.20  22.50 -99.000   4.606   4.283   0.288 -99.000 -99.000 -99.000   4.438   4.283   0.000   0.000   0.155  705.13  660.13  447.80  208.21    0.00    4.12   0.000   0.000   0.000   0.000   0.000   0.000   0.000   0.000   0.000   0.000   0.428
 2019 330   162  18.70  34.50  22.00 -99.000   4.628   4.303   0.286 -99.000 -99.000 -99.000   4.460   4.303   0.000   0.000   0.157  709.76  664.59  452.10  208.21    0.00    4.28   0.000   0.000   0.000   0.000   0.000   0.000   0.000   0.000   0.000   0.000   0.430
 2019 331   163  19.40  35.60  21.60 -99.000   4.971   4.602   0.329 -99.000 -99.000 -99.000   4.763   4.602   0.000   0.000   0.161  714.73  669.35  456.71  208.21    0.00    4.44   0.000   0.000   0.000   0.000   0.000   0.000   0.000   0.000   0.000   0.000   0.460
 2019 332   164  19.80  35.30  20.20 -99.000   4.941   4.561   0.339 -99.000 -99.000 -99.000   4.709   4.561   0.080   0.000   0.068  719.67  674.06  461.27  208.29    0.00    4.51   0.066   0.009   0.001   0.001   0.001   0.000   0.000   0.001   0.000   0.001   0.456
 2019 333   165  19.20  34.80  21.50 -99.000   4.741   4.364   0.345 -99.000 -99.000 -99.000   4.512   4.364   0.116   0.000   0.032  724.41  678.57  465.63  208.40    0.00    4.54   0.095   0.013   0.002   0.001   0.001   0.001   0.000   0.001   0.000   0.001   0.436
 2019 334   166  19.90  35.10  21.00 -99.000   4.933   4.526   0.367 -99.000 -99.000 -99.000   4.681   4.526   0.137   0.000   0.018  729.34  683.26  470.16  208.54    0.00    4.56   0.112   0.015   0.003   0.002   0.001   0.001   0.001   0.001   0.001   0.001   0.453
 2019 335   167  18.00  34.20  20.30 -99.000   4.380   4.034   0.312 -99.000 -99.000 -99.000   4.164   4.034   0.116   0.000   0.013  733.72  687.42  474.19  208.65    0.00    4.57   0.097   0.013   0.002   0.001   0.001   0.001   0.000   0.001   0.000   0.001   0.403
 2019 336   168  18.60  34.50  21.00 -99.000   4.563   4.194   0.332 -99.000 -99.000 -99.000   4.331   4.194   0.126   0.000   0.011  738.29  691.75  478.39  208.78    0.00    4.58   0.034   0.026   0.009   0.007   0.005   0.004   0.003   0.009   0.007   0.021   0.419
 2019 337   169  18.50  34.20  21.00 -99.000   4.526   4.181   0.308 -99.000 -99.000 -99.000   4.336   4.181   0.000   0.000   0.155  742.81  696.09  482.57  208.78    0.00    4.74   0.000   0.000   0.000   0.000   0.000   0.000   0.000   0.000   0.000   0.000   0.418
 2019 338   170  19.70  34.40  21.00 -99.000   4.831   4.478   0.320 -99.000 -99.000 -99.000   4.608   4.478   0.069   0.000   0.060  747.64  700.69  487.04  208.85    0.00    4.80   0.057   0.008   0.001   0.001   0.000   0.000   0.000   0.000   0.000   0.000   0.448
 2019 339   171  19.10  34.20  20.70 -99.000   4.663   4.318   0.313 -99.000 -99.000 -99.000   4.443   4.318   0.101   0.000   0.024  752.31  705.14  491.36  208.95    0.00    4.82   0.084   0.011   0.002   0.001   0.001   0.000   0.000   0.001   0.000   0.001   0.432
 2019 340   172  17.50  34.90  20.60 -99.000   4.298   3.962   0.303 -99.000 -99.000 -99.000   4.082   3.962   0.106   0.000   0.013  756.60  709.22  495.33  209.06    0.00    4.84   0.088   0.012   0.002   0.001   0.001   0.000   0.000   0.001   0.000   0.001   0.396
 2019 341   173  19.30  34.60  20.60 -99.000   4.720   4.319   0.360 -99.000 -99.000 -99.000   4.459   4.319   0.130   0.000   0.010  761.32  713.68  499.65  209.19    0.00    4.85   0.107   0.015   0.002   0.001   0.001   0.001   0.000   0.001   0.000   0.001   0.432
 2019 342   174  18.50  34.90  20.40 -99.000   4.534   4.170   0.330 -99.000 -99.000 -99.000   4.296   4.170   0.117   0.000   0.010  765.86  717.97  503.82  209.30    0.00    4.86   0.096   0.014   0.002   0.001   0.001   0.001   0.000   0.001   0.000   0.001   0.417
 2019 343   175  19.40  35.30  21.20 -99.000   4.866   4.476   0.351 -99.000 -99.000 -99.000   4.608   4.476   0.124   0.000   0.009  770.72  722.58  508.29  209.43    0.00    4.87   0.102   0.014   0.002   0.001   0.001   0.001   0.000   0.001   0.001   0.001   0.448
 2019 344   176  18.90  34.90  19.80 -99.000   4.619   4.302   0.285 -99.000 -99.000 -99.000   4.408   4.302   0.099   0.000   0.007  775.34  726.99  512.59  209.53    0.00    4.87   0.083   0.011   0.002   0.001   0.001   0.000   0.000   0.001   0.000   0.001   0.430
 2019 345   177  20.10  33.20  20.20 -99.000   4.840   4.504   0.301 -99.000 -99.000 -99.000   4.616   4.504   0.103   0.000   0.008  780.18  731.61  517.10  209.63    0.00    4.88   0.029   0.022   0.007   0.006   0.004   0.003   0.003   0.007   0.006   0.017   0.450
 2019 346   178  19.50  33.80  20.00 -99.000   4.719   4.398   0.285 -99.000 -99.000 -99.000   4.502   4.398   0.098   0.000   0.006  784.90  736.11  521.49  209.73    0.00    4.89   0.082   0.011   0.002   0.001   0.001   0.000   0.000   0.000   0.000   0.000   0.440
 2019 347   179  20.50  34.80  20.50 -99.000   5.031   4.697   0.298 -99.000 -99.000 -99.000   4.804   4.697   0.100   0.000   0.008  789.93  740.91  526.19  209.83    0.00    4.89   0.083   0.011   0.002   0.001   0.001   0.000   0.000   0.001   0.000   0.001   0.470
 2019 348   180  19.00  33.50  20.30 -99.000   4.593   4.289   0.271 -99.000 -99.000 -99.000   4.385   4.289   0.089   0.000   0.008  794.53  745.30  530.48  209.91    0.00    4.90   0.074   0.010   0.002   0.001   0.001   0.000   0.000   0.001   0.000   0.001   0.429
 2019 349   181  19.90  33.70  19.70 -99.000   4.801   4.492   0.278 -99.000 -99.000 -99.000   4.611   4.492   0.000   0.000   0.119  799.33  749.91  534.97  209.91    0.00    5.02   0.000   0.000   0.000   0.000   0.000   0.000   0.000   0.000   0.000   0.000   0.449
 2019 350   182  19.80  34.90  19.50 -99.000   4.828   4.502   0.292 -99.000 -99.000 -99.000   4.602   4.502   0.058   0.000   0.043  804.16  754.51  539.47  209.97    0.00    5.06   0.047   0.007   0.001   0.001   0.000   0.000   0.000   0.000   0.000   0.000   0.450
 2019 351   183  19.10  35.00  20.00 -99.000   4.677   4.355   0.287 -99.000 -99.000 -99.000   4.452   4.355   0.077   0.000   0.020  808.83  758.96  543.83  210.05    0.00    5.08   0.065   0.009   0.001   0.001   0.000   0.000   0.000   0.000   0.000   0.000   0.435
 2019 352   184  17.10  34.50  21.40 -99.000   4.202   3.882   0.287 -99.000 -99.000 -99.000   3.978   3.882   0.082   0.000   0.014  813.04  762.94  547.71  210.13    0.00    5.10   0.023   0.018   0.006   0.005   0.003   0.002   0.002   0.006   0.005   0.013   0.388
 2019 353   185  17.90  34.70  20.50 -99.000   4.380   4.050   0.298 -99.000 -99.000 -99.000   4.147   4.050   0.087   0.000   0.011  817.42  767.09  551.76  210.22    0.00    5.11   0.072   0.010   0.001   0.001   0.001   0.000   0.000   0.000   0.000   0.000   0.405
 2019 354   186  19.20  35.20  19.30 -99.000   4.726   4.366   0.318 -99.000 -99.000 -99.000   4.468   4.366   0.091   0.000   0.011  822.14  771.55  556.13  210.31    0.00    5.12   0.076   0.010   0.002   0.001   0.001   0.000   0.000   0.000   0.000   0.000   0.437
 2019 355   187  19.60  34.10  18.90 -99.000   4.711   4.351   0.326 -99.000 -99.000 -99.000   4.455   4.351   0.094   0.000   0.009  826.85  776.01  560.48  210.40    0.00    5.13   0.078   0.011   0.002   0.001   0.001   0.000   0.000   0.001   0.000   0.001   0.435
 2019 356   188  21.10  32.10  19.00 -99.000   4.964   4.557   0.368 -99.000 -99.000 -99.000   4.742   4.557   0.000   0.000   0.185  831.82  780.75  565.04  210.40    0.00    5.31   0.000   0.000   0.000   0.000   0.000   0.000   0.000   0.000   0.000   0.000   0.456
 2019 357   189  20.20  34.80  18.00 -99.000   4.853   4.439   0.376 -99.000 -99.000 -99.000   4.555   4.439   0.057   0.000   0.059  836.67  785.31  569.47  210.46    0.00    5.37   0.047   0.007   0.001   0.001   0.000   0.000   0.000   0.000   0.000   0.000   0.444
 2019 358   190  19.80  35.70  17.70 -99.000   4.944   4.520   0.381 -99.000 -99.000 -99.000   4.665   4.520   0.000   0.000   0.144  841.61  789.97  573.99  210.46    0.00    5.52   0.000   0.000   0.000   0.000   0.000   0.000   0.000   0.000   0.000   0.000   0.452
 2019 359   191  20.40  34.40  18.80 -99.000   4.908   4.487   0.381 -99.000 -99.000 -99.000   4.601   4.487   0.067   0.000   0.047  846.52  794.57  578.48  210.53    0.00    5.56   0.019   0.014   0.005   0.004   0.003   0.002   0.002   0.004   0.004   0.010   0.449
 2019 360   192  21.30  34.70  19.00 -99.000   5.140   4.657   0.440 -99.000 -99.000 -99.000   4.787   4.657   0.111   0.000   0.019  851.66  799.36  583.14  210.64    0.00    5.58   0.093   0.012   0.002   0.001   0.001   0.000   0.000   0.001   0.000   0.001   0.466
 2019 361   193  19.50  34.60  18.80 -99.000   4.692   4.244   0.409 -99.000 -99.000 -99.000   4.363   4.244   0.109   0.000   0.010  856.35  803.72  587.38  210.75    0.00    5.59   0.091   0.012   0.002   0.001   0.001   0.000   0.000   0.001   0.000   0.001   0.424
 2019 362   194  18.90  34.80  18.10 -99.000   4.532   4.087   0.408 -99.000 -99.000 -99.000   4.205   4.087   0.109   0.000   0.009  860.89  807.93  591.47  210.86    0.00    5.60   0.090   0.012   0.002   0.001   0.001   0.000   0.000   0.001   0.000   0.001   0.409
 2019 363   195  20.30  34.50  16.90 -99.000   4.806   4.308   0.459 -99.000 -99.000 -99.000   4.439   4.308   0.124   0.000   0.007  865.69  812.37  595.78  210.98    0.00    5.61   0.103   0.014   0.002   0.001   0.001   0.001   0.000   0.001   0.000   0.001   0.431
 2019 364   196  20.70  34.50  17.80 -99.000   4.933   4.429   0.465 -99.000 -99.000 -99.000   4.622   4.429   0.000   0.000   0.193  870.63  816.99  600.21  210.98    0.00    5.80   0.000   0.000   0.000   0.000   0.000   0.000   0.000   0.000   0.000   0.000   0.443
 2019 365   197  18.00  34.70  18.00 -99.000   4.310   3.900   0.372 -99.000 -99.000 -99.000   4.167   3.900   0.000   0.000   0.267  874.94  821.16  604.11  210.98    0.00    6.07   0.000   0.000   0.000   0.000   0.000   0.000   0.000   0.000   0.000   0.000   0.390
 2020 001   198  20.20  34.20  18.10 -99.000   4.810   4.314   0.453 -99.000 -99.000 -99.000   4.639   4.314   0.000   0.000   0.326  879.75  825.80  608.42  210.98    0.00    6.39   0.000   0.000   0.000   0.000   0.000   0.000   0.000   0.000   0.000   0.000   0.431
 2020 002   199  19.50  31.60  18.70 -99.000   4.531   4.038   0.444 -99.000 -99.000 -99.000   4.359   4.038   0.000   0.000   0.320  884.28  830.15  612.46  210.98    0.00    6.72   0.000   0.000   0.000   0.000   0.000   0.000   0.000   0.000   0.000   0.000   0.404
 2020 003   200  20.70  31.60  15.70 -99.000   4.704   4.174   0.471 -99.000 -99.000 -99.000   4.510   4.174   0.000   0.000   0.336  888.98  834.67  616.63  210.98    0.00    7.05   0.000   0.000   0.000   0.000   0.000   0.000   0.000   0.000   0.000   0.000   0.417
 2020 004   201  17.70  33.20  16.90 -99.000   4.129   3.679   0.411 -99.000 -99.000 -99.000   3.792   3.679   0.019   0.000   0.094  893.11  838.46  620.31  211.00    0.00    7.14   0.016   0.002   0.000   0.000   0.000   0.000   0.000   0.000   0.000   0.000   0.368
 2020 005   202  18.20  32.10  18.00 -99.000   4.227   3.762   0.427 -99.000 -99.000 -99.000   3.878   3.762   0.088   0.000   0.028  897.34  842.33  624.07  211.09    0.00    7.17   0.073   0.010   0.002   0.001   0.001   0.000   0.000   0.000   0.000   0.000   0.376
 2020 006   203  19.40  32.50  19.90 -99.000   4.592   4.120   0.434 -99.000 -99.000 -99.000   4.321   4.120   0.000   0.000   0.201  901.93  846.66  628.19  211.09    0.00    7.37   0.000   0.000   0.000   0.000   0.000   0.000   0.000   0.000   0.000   0.000   0.412
 2020 007   204  20.30  34.90  20.20 -99.000   4.942   4.457   0.444 -99.000 -99.000 -99.000   4.577   4.457   0.063   0.000   0.056  906.87  851.23  632.65  211.15    0.00    7.43   0.053   0.007   0.001   0.001   0.000   0.000   0.000   0.000   0.000   0.000   0.446
 2020 008   205  19.00  35.10  21.10 -99.000   4.690   4.254   0.402 -99.000 -99.000 -99.000   4.523   4.254   0.000   0.000   0.270  911.56  855.76  636.90  211.15    0.00    7.70   0.000   0.000   0.000   0.000   0.000   0.000   0.000   0.000   0.000   0.000   0.425
 2020 009   206  16.50  35.80  20.80 -99.000   4.218   3.792   0.392 -99.000 -99.000 -99.000   3.898   3.792   0.034   0.000   0.071  915.78  859.65  640.70  211.19    0.00    7.77   0.029   0.004   0.001   0.000   0.000   0.000   0.000   0.000   0.000   0.000   0.379
 2020 010   207  19.10  35.80  20.30 -99.000   4.863   4.361   0.464 -99.000 -99.000 -99.000   4.485   4.361   0.105   0.000   0.019  920.64  864.14  645.06  211.29    0.00    7.79   0.088   0.012   0.002   0.001   0.001   0.000   0.000   0.001   0.000   0.001   0.436
 2020 011   208  19.60  34.80  20.80 -99.000   4.778   4.261   0.478 -99.000 -99.000 -99.000   4.526   4.261   0.000   0.000   0.265  925.42  868.66  649.32  211.29    0.00    8.06   0.000   0.000   0.000   0.000   0.000   0.000   0.000   0.000   0.000   0.000   0.426
 2020 012   209  18.40  35.50  21.50 -99.000   4.638   4.118   0.486 -99.000 -99.000 -99.000   4.246   4.118   0.055   0.000   0.073  930.06  872.91  653.44  211.35    0.00    8.13   0.045   0.006   0.001   0.001   0.000   0.000   0.000   0.000   0.000   0.000   0.412
 2020 013   210  17.70  37.10  22.40 -99.000   4.892   4.380   0.476 -99.000 -99.000 -99.000   4.504   4.380   0.101   0.000   0.023  934.95  877.42  657.82  211.45    0.00    8.15   0.083   0.012   0.002   0.001   0.001   0.000   0.000   0.001   0.000   0.001   0.438
 2020 014   211  17.80  37.00  20.90 -99.000   4.848   4.353   0.459 -99.000 -99.000 -99.000   4.472   4.353   0.110   0.000   0.010  939.80  881.89  662.17  211.56    0.00    8.16   0.092   0.012   0.002   0.001   0.001   0.000   0.000   0.001   0.000   0.001   0.435
 2020 015   212  19.40  35.70  22.50 -99.000   4.988   4.481   0.464 -99.000 -99.000 -99.000   4.602   4.481   0.118   0.000   0.003  944.79  886.49  666.65  211.67    0.00    8.16   0.034   0.026   0.008   0.007   0.005   0.003   0.003   0.008   0.006   0.017   0.448
 2020 016   213  16.80  34.20  20.70 -99.000   4.074   3.669   0.368 -99.000 -99.000 -99.000   3.764   3.669   0.095   0.000   0.001  948.86  890.25  670.32  211.77    0.00    8.16   0.080   0.011   0.002   0.001   0.001   0.000   0.000   0.000   0.000   0.000   0.367
 2020 017   214  19.10  34.50  18.70 -99.000   4.584   4.139   0.402 -99.000 -99.000 -99.000   4.244   4.139   0.105   0.000   0.000  953.44  894.50  674.46  211.87    0.00    8.17   0.087   0.012   0.002   0.001   0.001   0.000   0.000   0.001   0.000   0.001   0.414
 2020 018   215  17.60  33.40  20.10 -99.000   4.212   3.785   0.392 -99.000 -99.000 -99.000   4.075   3.785   0.000   0.000   0.290  957.66  898.57  678.24  211.87    0.00    8.46   0.000   0.000   0.000   0.000   0.000   0.000   0.000   0.000   0.000   0.000   0.378
 2020 019   216  18.60  33.40  18.20 -99.000   4.388   3.916   0.432 -99.000 -99.000 -99.000   4.236   3.916   0.000   0.000   0.321  962.04  902.81  682.16  211.87    0.00    8.78   0.000   0.000   0.000   0.000   0.000   0.000   0.000   0.000   0.000   0.000   0.392
 2020 020   217  18.60  34.40  18.90 -99.000   4.453   3.960   0.457 -99.000 -99.000 -99.000   4.300   3.960   0.000   0.000   0.340  966.50  907.11  686.12  211.87    0.00    9.12   0.000   0.000   0.000   0.000   0.000   0.000   0.000   0.000   0.000   0.000   0.396
 2020 021   218  19.60  36.00  20.30 -99.000   5.035   4.475   0.521 -99.000 -99.000 -99.000   4.863   4.475   0.000   0.000   0.388  971.53  911.97  690.59  211.87    0.00    9.50   0.000   0.000   0.000   0.000   0.000   0.000   0.000   0.000   0.000   0.000   0.448
 2020 022   219  19.10  36.20  20.20 -99.000   4.959   4.421   0.494 -99.000 -99.000 -99.000   4.791   4.421   0.000   0.000   0.369  976.49  916.76  695.02  211.87    0.00    9.87   0.000   0.000   0.000   0.000   0.000   0.000   0.000   0.000   0.000   0.000   0.442
 2020 023   220  20.20  34.70  20.90 -99.000   4.925   4.403   0.474 -99.000 -99.000 -99.000   4.630   4.403   0.000   0.000   0.227  981.42  921.39  699.42  211.87    0.00   10.10   0.000   0.000   0.000   0.000   0.000   0.000   0.000   0.000   0.000   0.000   0.440
 2020 024   221  21.20  35.10  20.00 -99.000   5.182   4.633   0.491 -99.000 -99.000 -99.000   4.757   4.633   0.065   0.000   0.059  986.60  926.15  704.05  211.94    0.00   10.16   0.054   0.007   0.001   0.001   0.000   0.000   0.000   0.000   0.000   0.000   0.463
 2020 025   222  22.50  35.20  18.40 -99.000   5.474   4.915   0.494 -99.000 -99.000 -99.000   5.039   4.915   0.110   0.000   0.015  992.07  931.19  708.97  212.05    0.00   10.18   0.091   0.013   0.002   0.001   0.001   0.000   0.000   0.001   0.000   0.001   0.491
 2020 026   223  24.00  35.00  15.60 -99.000   5.664   5.115   0.498 -99.000 -99.000 -99.000   5.241   5.115   0.122   0.000   0.004  997.74  936.43  714.08  212.17    0.00   10.18   0.100   0.014   0.002   0.001   0.001   0.000   0.000   0.001   0.000   0.001   0.512
 2020 027   224  20.30  35.00  16.90 -99.000   4.831   4.346   0.447 -99.000 -99.000 -99.000   4.459   4.346   0.112   0.000   0.001   1003.    941.    718.    212.      0.     10.   0.091   0.013   0.002   0.001   0.001   0.000   0.000   0.001   0.000   0.001   0.435
 2020 028   225  21.30  34.70  18.30 -99.000   5.100   4.569   0.485 -99.000 -99.000 -99.000   4.690   4.569   0.121   0.000   0.000   1008.    946.    723.    212.      0.     10.   0.102   0.014   0.002   0.001   0.001   0.000   0.000   0.001   0.000   0.001   0.457
 2020 029   226  21.10  35.50  18.80 -99.000   5.227   4.676   0.511 -99.000 -99.000 -99.000   4.803   4.676   0.125   0.000   0.002   1013.    950.    728.    213.      0.     10.   0.037   0.028   0.009   0.007   0.005   0.003   0.003   0.008   0.007   0.018   0.468
 2020 030   227  21.70  36.00  18.40 -99.000   5.506   4.914   0.545 -99.000 -99.000 -99.000   5.049   4.914   0.132   0.000   0.003   1018.    955.    733.    213.      0.     10.   0.111   0.014   0.002   0.001   0.001   0.000   0.000   0.001   0.000   0.001   0.491
 2020 031   228  19.50  35.50  19.20 -99.000   4.845   4.340   0.461 -99.000 -99.000 -99.000   4.688   4.340   0.000   0.000   0.348   1023.    960.    737.    213.      0.     11.   0.000   0.000   0.000   0.000   0.000   0.000   0.000   0.000   0.000   0.000   0.434
 2020 032   229  22.40  35.50  18.60 -99.000   5.545   4.987   0.513 -99.000 -99.000 -99.000   5.374   4.987   0.000   0.000   0.387   1029.    965.    742.    213.      0.     11.   0.000   0.000   0.000   0.000   0.000   0.000   0.000   0.000   0.000   0.000   0.499
 2020 033   230  20.40  34.50  18.40 -99.000   4.882   4.395   0.442 -99.000 -99.000 -99.000   4.728   4.395   0.000   0.000   0.333   1034.    970.    746.    213.      0.     11.   0.000   0.000   0.000   0.000   0.000   0.000   0.000   0.000   0.000   0.000   0.440
 2020 034   231  20.50  34.20  19.30 -99.000   4.923   4.442   0.435 -99.000 -99.000 -99.000   4.771   4.442   0.000   0.000   0.328   1039.    975.    751.    213.      0.     12.   0.000   0.000   0.000   0.000   0.000   0.000   0.000   0.000   0.000   0.000   0.444
 2020 035   232  20.30  34.20  19.60 -99.000   4.881   4.387   0.455 -99.000 -99.000 -99.000   4.730   4.387   0.000   0.000   0.343   1043.    980.    755.    213.      0.     12.   0.000   0.000   0.000   0.000   0.000   0.000   0.000   0.000   0.000   0.000   0.439
 2020 036   233  18.30  33.90  20.30 -99.000   4.407   3.957   0.414 -99.000 -99.000 -99.000   4.270   3.957   0.000   0.000   0.313   1048.    984.    759.    213.      0.     12.   0.000   0.000   0.000   0.000   0.000   0.000   0.000   0.000   0.000   0.000   0.396
 2020 037   234  19.50  34.70  20.30 -99.000   4.735   4.253   0.445 -99.000 -99.000 -99.000   4.590   4.253   0.000   0.000   0.337   1053.    989.    763.    213.      0.     13.   0.000   0.000   0.000   0.000   0.000   0.000   0.000   0.000   0.000   0.000   0.425
 2020 038   235  22.50  34.90  19.60 -99.000   5.447   4.881   0.518 -99.000 -99.000 -99.000   5.041   4.881   0.000   0.000   0.160   1058.    994.    768.    213.      0.     13.   0.000   0.000   0.000   0.000   0.000   0.000   0.000   0.000   0.000   0.000   0.488
 2020 039   236  22.10  36.60  20.30 -99.000   5.873   5.290   0.531 -99.000 -99.000 -99.000   5.694   5.290   0.000   0.000   0.404   1064.    999.    774.    213.      0.     13.   0.000   0.000   0.000   0.000   0.000   0.000   0.000   0.000   0.000   0.000   0.529
 2020 040   237  17.10  35.70  21.10 -99.000   4.358   3.942   0.375 -99.000 -99.000 -99.000   4.227   3.942   0.000   0.000   0.285   1068.   1004.    777.    213.      0.     13.   0.000   0.000   0.000   0.000   0.000   0.000   0.000   0.000   0.000   0.000   0.394
 2020 041   238  20.40  35.20  21.60 -99.000   5.071   4.568   0.463 -99.000 -99.000 -99.000   4.920   4.568   0.000   0.000   0.352   1073.   1008.    782.    213.      0.     14.   0.000   0.000   0.000   0.000   0.000   0.000   0.000   0.000   0.000   0.000   0.457
 2020 042   239  19.70  35.40  22.30 -99.000   4.973   4.458   0.466 -99.000 -99.000 -99.000   4.813   4.458   0.000   0.000   0.355   1078.   1013.    786.    213.      0.     14.   0.000   0.000   0.000   0.000   0.000   0.000   0.000   0.000   0.000   0.000   0.446
 2020 043   240  19.00  34.00  21.90 -99.000   4.630   4.144   0.438 -99.000 -99.000 -99.000   4.478   4.144   0.000   0.000   0.334   1083.   1018.    791.    213.      0.     14.   0.000   0.000   0.000   0.000   0.000   0.000   0.000   0.000   0.000   0.000   0.414
 2020 044   241  20.00  34.90  20.60 -99.000   4.874   4.368   0.467 -99.000 -99.000 -99.000   4.726   4.368   0.000   0.000   0.358   1088.   1022.    795.    213.      0.     15.   0.000   0.000   0.000   0.000   0.000   0.000   0.000   0.000   0.000   0.000   0.437
 2020 045   242  22.40  36.20  20.90 -99.000   5.852   5.278   0.526 -99.000 -99.000 -99.000   5.681   5.278   0.000   0.000   0.403   1094.   1028.    800.    213.      0.     15.   0.000   0.000   0.000   0.000   0.000   0.000   0.000   0.000   0.000   0.000   0.528
 2020 046   243  21.80  36.00  20.70 -99.000   5.630   5.096   0.489 -99.000 -99.000 -99.000   5.471   5.096   0.000   0.000   0.375   1099.   1034.    805.    213.      0.     16.   0.000   0.000   0.000   0.000   0.000   0.000   0.000   0.000   0.000   0.000   0.510
 2020 047   244  19.40  36.50  21.10 -99.000   5.154   4.637   0.473 -99.000 -99.000 -99.000   4.987   4.637   0.000   0.000   0.350   1104.   1039.    810.    213.      0.     16.   0.000   0.000   0.000   0.000   0.000   0.000   0.000   0.000   0.000   0.000   0.464
 2020 048   245  19.20  36.60  22.10 -99.000   5.161   4.624   0.487 -99.000 -99.000 -99.000   4.737   4.624   0.028   0.000   0.086   1110.   1043.    815.    213.      0.     16.   0.008   0.006   0.002   0.002   0.001   0.001   0.001   0.002   0.001   0.004   0.462
 2020 049   246  18.90  35.80  22.50 -99.000   4.879   4.364   0.473 -99.000 -99.000 -99.000   4.473   4.364   0.086   0.000   0.023   1115.   1048.    819.    213.      0.     16.   0.072   0.009   0.001   0.001   0.001   0.000   0.000   0.000   0.000   0.000   0.436
 2020 050   247  20.50  36.10  22.30 -99.000   5.370   4.807   0.522 -99.000 -99.000 -99.000   4.927   4.807   0.112   0.000   0.008   1120.   1053.    824.    213.      0.     16.   0.094   0.012   0.002   0.001   0.001   0.000   0.000   0.001   0.000   0.001   0.481
 2020 051   248  19.20  37.10  22.70 -99.000   5.317   4.773   0.499 -99.000 -99.000 -99.000   4.887   4.773   0.110   0.000   0.004   1125.   1058.    829.    213.      0.     16.   0.091   0.012   0.002   0.001   0.001   0.000   0.000   0.001   0.000   0.001   0.477
 2020 052   249  18.30  37.40  23.00 -99.000   5.159   4.644   0.471 -99.000 -99.000 -99.000   4.850   4.644   0.000   0.000   0.206   1130.   1062.    833.    213.      0.     16.   0.000   0.000   0.000   0.000   0.000   0.000   0.000   0.000   0.000   0.000   0.464
 2020 053   250  20.10  38.30  24.40 -99.000   5.982   5.389   0.541 -99.000 -99.000 -99.000   5.513   5.389   0.074   0.000   0.050   1136.   1068.    839.    213.      0.     16.   0.062   0.008   0.001   0.001   0.000   0.000   0.000   0.000   0.000   0.000   0.539
 2020 054   251  20.20  38.10  24.10 -99.000   5.943   5.348   0.535 -99.000 -99.000 -99.000   5.470   5.348   0.110   0.000   0.012   1142.   1073.    844.    213.      0.     16.   0.033   0.025   0.008   0.006   0.004   0.003   0.003   0.007   0.006   0.016   0.535
 2020 055   252  20.10  37.10  24.00 -99.000   5.619   5.058   0.503 -99.000 -99.000 -99.000   5.446   5.058   0.000   0.000   0.388   1148.   1079.    849.    213.      0.     17.   0.000   0.000   0.000   0.000   0.000   0.000   0.000   0.000   0.000   0.000   0.506
 2020 056   253  18.90  36.20  22.50 -99.000   4.991   4.497   0.445 -99.000 -99.000 -99.000   4.840   4.497   0.000   0.000   0.343   1153.   1084.    854.    213.      0.     17.   0.000   0.000   0.000   0.000   0.000   0.000   0.000   0.000   0.000   0.000   0.450
 2020 057   254  18.30  36.70  22.80 -99.000   4.966   4.450   0.472 -99.000 -99.000 -99.000   4.814   4.450   0.000   0.000   0.364   1158.   1089.    858.    213.      0.     17.   0.000   0.000   0.000   0.000   0.000   0.000   0.000   0.000   0.000   0.000   0.445
 2020 058   255  20.00  36.70  23.30 -99.000   5.442   4.865   0.533 -99.000 -99.000 -99.000   5.120   4.865   0.000   0.000   0.255   1163.   1094.    863.    213.      0.     18.   0.000   0.000   0.000   0.000   0.000   0.000   0.000   0.000   0.000   0.000   0.486
 2020 059   256  21.00  37.50  23.10 -99.000   5.941   5.289   0.604 -99.000 -99.000 -99.000   5.425   5.289   0.073   0.000   0.064   1169.   1099.    868.    213.      0.     18.   0.061   0.008   0.001   0.001   0.000   0.000   0.000   0.000   0.000   0.000   0.529
 2020 060   257  21.30  38.50  25.80 -99.000   6.448   5.741   0.649 -99.000 -99.000 -99.000   5.887   5.741   0.128   0.000   0.018   1176.   1105.    874.    213.      0.     18.   0.038   0.029   0.010   0.008   0.005   0.003   0.003   0.008   0.007   0.018   0.574
 2020 061   258  19.50  37.50  24.10 -99.000   5.557   4.952   0.551 -99.000 -99.000 -99.000   5.163   4.952   0.000   0.000   0.211   1181.   1110.    879.    213.      0.     18.   0.000   0.000   0.000   0.000   0.000   0.000   0.000   0.000   0.000   0.000   0.495
 2020 062   259  19.40  36.40  25.10 -99.000   5.257   4.691   0.520 -99.000 -99.000 -99.000   4.807   4.691   0.065   0.000   0.052   1187.   1115.    884.    213.      0.     18.   0.054   0.007   0.001   0.001   0.000   0.000   0.000   0.000   0.000   0.000   0.469
 2020 063   260  20.60  37.00  24.60 -99.000   5.741   5.125   0.568 -99.000 -99.000 -99.000   5.566   5.125   0.000   0.000   0.441   1192.   1121.    889.    213.      0.     18.   0.000   0.000   0.000   0.000   0.000   0.000   0.000   0.000   0.000   0.000   0.513
 2020 064   261  22.80  37.70  23.90 -99.000   6.550   5.838   0.665 -99.000 -99.000 -99.000   6.354   5.838   0.000   0.000   0.516   1199.   1127.    894.    213.      0.     19.   0.000   0.000   0.000   0.000   0.000   0.000   0.000   0.000   0.000   0.000   0.584
 2020 065   262  22.20  38.00  24.60 -99.000   6.502   5.781   0.667 -99.000 -99.000 -99.000   4.931   4.413   0.000   0.000   0.518   1205.   1132.    899.    213.      0.     20.   0.000   0.000   0.000   0.000   0.000   0.000   0.000   0.000   0.000   0.000   0.441
 2020 066   263  19.80  37.00  24.10 -99.000   5.488   4.827   0.605 -99.000 -99.000 -99.000   5.150   4.827   0.000   0.000   0.324   1211.   1137.    904.    213.      0.     20.   0.000   0.000   0.000   0.000   0.000   0.000   0.000   0.000   0.000   0.000   0.483
 2020 067   264  21.30  36.90  24.70 -99.000   5.896   5.203   0.648 -99.000 -99.000 -99.000   5.345   5.203   0.063   0.000   0.079   1217.   1142.    909.    214.      0.     20.   0.053   0.007   0.001   0.001   0.000   0.000   0.000   0.000   0.000   0.000   0.520
 2020 068   265  21.20  36.90  24.30 -99.000   5.847   5.123   0.674 -99.000 -99.000 -99.000   5.270   5.123   0.125   0.000   0.023   1223.   1148.    914.    214.      0.     20.   0.104   0.014   0.002   0.001   0.001   0.000   0.000   0.001   0.000   0.001   0.512
 2020 069   266  22.50  38.20  24.50 -99.000   6.635   5.821   0.763 -99.000 -99.000 -99.000   5.987   5.821   0.159   0.000   0.007   1229.   1154.    920.    214.      0.     20.   0.132   0.018   0.003   0.002   0.001   0.001   0.000   0.001   0.000   0.001   0.582
 2020 070   267  21.20  38.10  23.20 -99.000   6.169   5.407   0.704 -99.000 -99.000 -99.000   5.560   5.407   0.148   0.000   0.004   1235.   1159.    925.    214.      0.     20.   0.121   0.018   0.003   0.002   0.001   0.001   0.000   0.001   0.001   0.001   0.541
 2020 071   268  19.90  36.90  25.20 -99.000   5.517   4.822   0.647 -99.000 -99.000 -99.000   4.749   4.610   0.136   0.000   0.003   1241.   1164.    930.    214.      0.     20.   0.114   0.015   0.002   0.001   0.001   0.000   0.000   0.001   0.000   0.001   0.461
 2020 072   269  19.60  35.80  25.40 -99.000   5.136   4.483   0.603 -99.000 -99.000 -99.000   4.612   4.483   0.127   0.000   0.002   1246.   1169.    934.    214.      0.     20.   0.038   0.029   0.010   0.008   0.005   0.003   0.003   0.008   0.006   0.018   0.448
 2020 073   270  20.60  34.70  23.90 -99.000   5.097   4.440   0.614 -99.000 -99.000 -99.000   4.719   4.440   0.000   0.000   0.278   1251.   1173.    939.    214.      0.     20.   0.000   0.000   0.000   0.000   0.000   0.000   0.000   0.000   0.000   0.000   0.444
 2020 074   271  19.20  35.00  22.80 -99.000   4.732   4.138   0.557 -99.000 -99.000 -99.000   4.257   4.138   0.053   0.000   0.066   1256.   1177.    943.    214.      0.     20.   0.044   0.006   0.001   0.001   0.000   0.000   0.000   0.000   0.000   0.000   0.414
 2020 075   272  19.90  37.10  21.60 -99.000   5.444   4.762   0.636 -99.000 -99.000 -99.000   4.897   4.762   0.118   0.000   0.017   1261.   1182.    948.    214.      0.     20.   0.098   0.013   0.002   0.001   0.001   0.000   0.000   0.001   0.000   0.001   0.476
 2020 076   273  19.80  37.40  23.20 -99.000   5.559   4.864   0.646 -99.000 -99.000 -99.000   5.001   4.864   0.131   0.000   0.006   1267.   1187.    953.    215.      0.     20.   0.108   0.015   0.003   0.002   0.001   0.001   0.000   0.001   0.000   0.001   0.486
 2020 077   274  21.70  37.60  24.30 -99.000   6.197   5.419   0.730 -99.000 -99.000 -99.000   5.573   5.419   0.152   0.000   0.003   1273.   1193.    958.    215.      0.     20.   0.127   0.017   0.003   0.002   0.001   0.000   0.000   0.001   0.000   0.001   0.542
 2020 078   275  20.40  37.20  25.40 -99.000   5.745   4.986   0.711 -99.000 -99.000 -99.000   5.136   4.986   0.148   0.000   0.002   1279.   1198.    963.    215.      0.     20.   0.044   0.034   0.011   0.008   0.006   0.004   0.003   0.009   0.008   0.021   0.499
 2020 079   276  20.70  37.80  24.80 -99.000   5.980   5.163   0.763 -99.000 -99.000 -99.000   5.323   5.163   0.158   0.000   0.002   1285.   1203.    968.    215.      0.     20.   0.133   0.018   0.003   0.002   0.001   0.000   0.000   0.001   0.000   0.001   0.516
 2020 080   277  22.00  36.20  24.30 -99.000   5.829   5.014   0.763 -99.000 -99.000 -99.000   5.174   5.014   0.157   0.000   0.003   1291.   1209.    973.    215.      0.     20.   0.131   0.018   0.003   0.002   0.001   0.001   0.000   0.001   0.000   0.001   0.501
 2020 081   278  20.80  38.00  25.10 -99.000   6.074   5.225   0.805 -99.000 -99.000 -99.000   5.392   5.225   0.025   0.000   0.142   1297.   1214.    978.    215.      0.     20.   0.021   0.003   0.000   0.000   0.000   0.000   0.000   0.000   0.000   0.000   0.523
 2020 082   279  20.70  36.50  24.50 -99.000   5.577   4.791   0.736 -99.000 -99.000 -99.000   4.943   4.791   0.118   0.000   0.035   1302.   1219.    983.    215.      0.     21.   0.098   0.013   0.002   0.001   0.001   0.000   0.000   0.001   0.000   0.001   0.479
 2020 083   280  20.20  36.20  25.10 -99.000   5.373   4.580   0.744 -99.000 -99.000 -99.000   4.733   4.580   0.144   0.000   0.010   1308.   1224.    988.    215.      0.     21.   0.045   0.032   0.011   0.008   0.006   0.004   0.003   0.008   0.007   0.019   0.458
 2020 084   281  21.20  33.50  23.90 -99.000   5.167   4.426   0.692 -99.000 -99.000 -99.000   4.977   4.426   0.000   0.000   0.551   1313.   1229.    992.    215.      0.     21.   0.000   0.000   0.000   0.000   0.000   0.000   0.000   0.000   0.000   0.000   0.443
 2020 085   282  20.10  34.90  24.90 -99.000   5.009   4.322   0.634 -99.000 -99.000 -99.000   4.827   4.322   0.000   0.000   0.505   1318.   1233.    996.    215.      0.     22.   0.000   0.000   0.000   0.000   0.000   0.000   0.000   0.000   0.000   0.000   0.432
 2020 086   283  21.90  35.30  25.00 -99.000   5.569   4.877   0.647 -99.000 -99.000 -99.000   5.392   4.877   0.000   0.000   0.515   1323.   1239.   1001.    215.      0.     22.   0.000   0.000   0.000   0.000   0.000   0.000   0.000   0.000   0.000   0.000   0.488
 2020 087   284  21.40  37.20  25.70 -99.000   6.051   5.325   0.673 -99.000 -99.000 -99.000   5.741   5.325   0.000   0.000   0.416   1329.   1245.   1007.    215.      0.     23.   0.000   0.000   0.000   0.000   0.000   0.000   0.000   0.000   0.000   0.000   0.533
 2020 088   285  21.30  36.80  25.90 -99.000   5.914   5.239   0.622 -99.000 -99.000 -99.000   5.364   5.239   0.029   0.000   0.096   1335.   1250.   1012.    215.      0.     23.   0.024   0.003   0.001   0.000   0.000   0.000   0.000   0.000   0.000   0.000   0.524
 2020 089   286  20.60  37.40  26.00 -99.000   5.904   5.241   0.611 -99.000 -99.000 -99.000   5.364   5.241   0.099   0.000   0.023   1341.   1255.   1017.    216.      0.     23.   0.083   0.011   0.002   0.001   0.001   0.000   0.000   0.000   0.000   0.000   0.524
 2020 090   287  20.60  36.60  26.90 -99.000   5.700   5.061   0.589 -99.000 -99.000 -99.000   5.178   5.061   0.110   0.000   0.008   1347.   1260.   1022.    216.      0.     23.   0.033   0.025   0.008   0.006   0.005   0.003   0.003   0.007   0.006   0.015   0.506
 2020 091   288  19.90  35.90  25.70 -99.000   5.264   4.669   0.547 -99.000 -99.000 -99.000   4.777   4.669   0.104   0.000   0.004   1352.   1265.   1027.    216.      0.     23.   0.031   0.023   0.008   0.006   0.005   0.003   0.002   0.006   0.005   0.014   0.467
 2020 092   289  20.40  34.70  25.20 -99.000   5.112   4.566   0.501 -99.000 -99.000 -99.000   4.968   4.566   0.000   0.000   0.402   1357.   1270.   1031.    216.      0.     23.   0.000   0.000   0.000   0.000   0.000   0.000   0.000   0.000   0.000   0.000   0.457
 2020 093   290  23.70  36.30  25.00 -99.000   6.389   5.735   0.594 -99.000 -99.000 -99.000   6.212   5.735   0.000   0.000   0.477   1364.   1276.   1037.    216.      0.     24.   0.000   0.000   0.000   0.000   0.000   0.000   0.000   0.000   0.000   0.000   0.574
 2020 094   291  20.30  36.90  25.60 -99.000   5.668   5.078   0.528 -99.000 -99.000 -99.000   5.503   5.078   0.000   0.000   0.425   1369.   1282.   1042.    216.      0.     24.   0.000   0.000   0.000   0.000   0.000   0.000   0.000   0.000   0.000   0.000   0.508
 2020 095   292  21.80  32.50  25.30 -99.000   5.359   4.849   0.455 -99.000 -99.000 -99.000   5.216   4.849   0.000   0.000   0.366   1375.   1287.   1047.    216.      0.     24.   0.000   0.000   0.000   0.000   0.000   0.000   0.000   0.000   0.000   0.000   0.485
[...]
 2020 136   333  19.10  34.60  24.60 -99.000   4.843   2.803   2.014 -99.000 -99.000 -99.000   4.292   2.803   1.377   0.000   0.113   1615.   1331.    855.    468.      0.      9.   1.165   0.147   0.019   0.011   0.008   0.006   0.004   0.008   0.004   0.006   0.280
 2020 137   334  19.20  34.90  25.10 -99.000   4.920   2.847   2.049 -99.000 -99.000 -99.000   4.361   2.847   1.342   0.000   0.172   1620.   1336.    858.    469.      0.      9.   0.413   0.294   0.073   0.060   0.052   0.049   0.042   0.105   0.069   0.184   0.285
 2020 138   335  19.40  36.00  25.80 -99.000   5.272   3.030   2.214 -99.000 -99.000 -99.000   4.625   3.030   1.464   0.000   0.132   1625.   1340.    861.    471.      0.      9.   1.240   0.157   0.019   0.012   0.008   0.006   0.004   0.008   0.004   0.006   0.303
 2020 139   336  17.40  35.00  25.80 -99.000   4.468   2.535   1.904 -99.000 -99.000 -99.000   3.940   2.535   1.318   0.000   0.086   1630.   1344.    863.    472.      0.      9.   1.108   0.145   0.019   0.011   0.008   0.006   0.004   0.008   0.004   0.006   0.254
 2020 140   337  18.70  33.70  25.00 -99.000   4.712   2.652   2.029 -99.000 -99.000 -99.000   4.059   2.652   1.238   0.000   0.170   1635.   1348.    866.    473.      0.     10.   1.035   0.137   0.019   0.011   0.008   0.006   0.004   0.008   0.004   0.006   0.265
 2020 141   338  18.20  33.10  25.70 -99.000   4.571   2.574   1.966 -99.000 -99.000 -99.000   4.021   2.574   1.320   0.000   0.126   1639.   1352.    868.    474.      0.     10.   1.100   0.149   0.023   0.014   0.009   0.006   0.004   0.007   0.003   0.006   0.257
 2020 142   339  17.90  34.20  24.50 -99.000   4.534   2.539   1.964 -99.000 -99.000 -99.000   3.983   2.539   1.272   0.000   0.172   1644.   1356.    871.    476.      0.     10.   0.356   0.270   0.091   0.076   0.063   0.053   0.044   0.107   0.064   0.149   0.254
 2020 143   340  17.40  35.00  24.60 -99.000   4.447   2.485   1.934 -99.000 -99.000 -99.000   3.906   2.485   1.279   0.000   0.141   1648.   1360.    873.    477.      0.     10.   0.347   0.262   0.086   0.072   0.062   0.057   0.052   0.122   0.077   0.142   0.249
 2020 144   341  19.10  35.10  25.70 -99.000   4.945   2.756   2.164 -99.000 -99.000 -99.000   4.344   2.756   1.419   0.000   0.169   1653.   1365.    876.    478.      0.     10.   0.386   0.282   0.095   0.080   0.067   0.064   0.057   0.132   0.097   0.158   0.276
 2020 145   342  18.00  31.70  24.60 -99.000   4.447   2.476   1.945 -99.000 -99.000 -99.000   3.902   2.476   1.277   0.000   0.149   1658.   1369.    879.    480.      0.     10.   0.344   0.254   0.085   0.071   0.060   0.057   0.051   0.118   0.093   0.143   0.248
 2020 146   343  18.20  32.00  24.30 -99.000   4.501   2.502   1.978 -99.000 -99.000 -99.000   3.950   2.502   1.283   0.000   0.166   1662.   1373.    881.    481.      0.     11.   0.331   0.253   0.086   0.072   0.061   0.058   0.053   0.121   0.098   0.151   0.250
 2020 147   344  18.80  35.00  25.70 -99.000   4.831   2.696   2.116 -99.000 -99.000 -99.000   4.245   2.696   1.395   0.000   0.154   1667.   1377.    884.    482.      0.     11.   0.354   0.273   0.090   0.077   0.065   0.063   0.057   0.133   0.109   0.173   0.270
 2020 148   345  17.50  33.90  25.00 -99.000   4.424   2.466   1.932 -99.000 -99.000 -99.000   3.879   2.466   1.249   0.000   0.165   1671.   1381.    886.    484.      0.     11.   0.312   0.243   0.080   0.067   0.057   0.056   0.051   0.121   0.100   0.162   0.247
 2020 149   346  20.10  32.30  24.40 -99.000   4.976   2.778   2.168 -99.000 -99.000 -99.000   4.363   2.778   1.435   0.000   0.151   1676.   1385.    889.    485.      0.     11.   0.367   0.281   0.093   0.078   0.066   0.063   0.057   0.136   0.111   0.183   0.278
 2020 150   347  19.30  32.60  24.70 -99.000   4.814   2.697   2.091 -99.000 -99.000 -99.000   4.225   2.697   1.362   0.000   0.166   1681.   1389.    892.    486.      0.     11.   0.355   0.268   0.088   0.074   0.063   0.059   0.053   0.126   0.102   0.174   0.270
 2020 151   348  18.20  33.50  24.90 -99.000   4.587   2.563   2.002 -99.000 -99.000 -99.000   4.024   2.563   1.305   0.000   0.157   1686.   1393.    894.    488.      0.     11.   0.335   0.250   0.084   0.071   0.060   0.057   0.051   0.119   0.099   0.179   0.256
 2020 152   349  18.90  34.00  26.00 -99.000   4.818   2.687   2.104 -99.000 -99.000 -99.000   4.221   2.687   1.368   0.000   0.166   1690.   1398.    897.    489.      0.     11.   0.346   0.260   0.086   0.073   0.062   0.059   0.054   0.125   0.104   0.198   0.269
 2020 153   350  16.70  28.70  23.90 -99.000   3.969   2.215   1.730 -99.000 -99.000 -99.000   3.475   2.215   1.100   0.000   0.160   1694.   1401.    899.    490.      0.     12.   0.273   0.205   0.068   0.057   0.049   0.046   0.042   0.099   0.082   0.179   0.222
 2020 154   351  20.00  31.40  24.70 -99.000   4.925   2.742   2.154 -99.000 -99.000 -99.000   4.310   2.742   1.401   0.000   0.167   1699.   1405.    902.    492.      0.     12.   0.348   0.257   0.086   0.072   0.061   0.057   0.052   0.120   0.100   0.246   0.274
 2020 155   352  19.70  32.30  25.80 -99.000   4.932   2.735   2.172 -99.000 -99.000 -99.000   4.314   2.735   1.416   0.000   0.163   1704.   1410.    905.    493.      0.     12.   0.354   0.256   0.087   0.073   0.062   0.058   0.053   0.121   0.101   0.251   0.273
 2020 156   353  18.50  33.00  23.40 -99.000   4.587   2.547   2.016 -99.000 -99.000 -99.000   4.011   2.547   1.296   0.000   0.168   1709.   1414.    907.    494.      0.     12.   0.315   0.238   0.078   0.065   0.055   0.053   0.048   0.114   0.094   0.236   0.255
 2020 157   354  19.70  34.00  24.30 -99.000   4.957   2.766   2.167 -99.000 -99.000 -99.000   4.338   2.766   1.464   0.000   0.108   1714.   1418.    910.    496.      0.     12.   0.352   0.268   0.088   0.073   0.062   0.059   0.054   0.130   0.108   0.270   0.277
 2020 158   355  16.60  32.10  23.20 -99.000   4.063   2.256   1.783 -99.000 -99.000 -99.000   3.549   2.256   1.116   0.000   0.177   1718.   1422.    912.    497.      0.     12.   0.273   0.204   0.066   0.055   0.046   0.045   0.041   0.099   0.082   0.206   0.226
 2020 159   356  19.50  32.80  23.20 -99.000   4.811   2.682   2.104 -99.000 -99.000 -99.000   4.206   2.682   1.380   0.000   0.144   1723.   1426.    915.    498.      0.     13.   0.339   0.255   0.080   0.067   0.057   0.055   0.050   0.122   0.101   0.255   0.268
 2020 160   357  17.90  32.20  23.60 -99.000   4.397   2.454   1.915 -99.000 -99.000 -99.000   3.840   2.454   1.293   0.000   0.092   1727.   1430.    917.    500.      0.     13.   0.321   0.243   0.078   0.066   0.056   0.052   0.046   0.111   0.091   0.229   0.245
 2020 161   358  18.40  33.00  23.10 -99.000   4.550   2.548   1.976 -99.000 -99.000 -99.000   3.977   2.548   1.240   0.000   0.189   1732.   1434.    920.    501.      0.     13.   0.304   0.233   0.075   0.063   0.053   0.050   0.045   0.107   0.088   0.221   0.255
 2020 162   359  18.30  33.00  23.40 -99.000   4.527   2.544   1.955 -99.000 -99.000 -99.000   3.958   2.544   1.292   0.000   0.121   1736.   1438.    923.    502.      0.     13.   0.312   0.241   0.078   0.065   0.055   0.052   0.047   0.114   0.093   0.235   0.254
 2020 163   360  17.00  30.80  22.30 -99.000   4.077   2.293   1.756 -99.000 -99.000 -99.000   3.561   2.293   1.072   0.000   0.197   1740.   1441.    925.    503.      0.     13.   0.255   0.198   0.064   0.054   0.046   0.044   0.039   0.095   0.078   0.198   0.229
 2020 164   361  18.10  31.20  23.30 -99.000   4.387   2.475   1.887 -99.000 -99.000 -99.000   3.837   2.475   1.236   0.000   0.125   1745.   1445.    927.    504.      0.     13.   1.020   0.138   0.022   0.013   0.009   0.007   0.005   0.009   0.005   0.008   0.248
 2020 165   362  17.30  31.50  23.10 -99.000   4.194   2.371   1.803 -99.000 -99.000 -99.000   3.672   2.371   1.221   0.000   0.080   1749.   1449.    930.    506.      0.     13.   0.287   0.228   0.075   0.063   0.053   0.050   0.046   0.110   0.090   0.220   0.237
 2020 166   363  17.80  32.20  23.60 -99.000   4.378   2.457   1.900 -99.000 -99.000 -99.000   3.826   2.457   1.179   0.000   0.190   1753.   1452.    932.    507.      0.     14.   0.286   0.219   0.071   0.059   0.050   0.047   0.043   0.105   0.086   0.212   0.246
 2020 167   364  17.60  33.40  24.90 -99.000   4.414   2.471   1.919 -99.000 -99.000 -99.000   3.852   2.471   1.260   0.000   0.121   1758.   1456.    935.    508.      0.     14.   0.301   0.234   0.075   0.063   0.053   0.051   0.046   0.112   0.093   0.231   0.247
 2020 168   365  19.20  32.90  24.20 -99.000   4.764   2.669   2.072 -99.000 -99.000 -99.000   4.158   2.669   1.396   0.000   0.093   1762.   1460.    937.    509.      0.     14.   0.330   0.257   0.083   0.070   0.059   0.057   0.051   0.126   0.104   0.260   0.267
 2020 169   366  15.80  33.80  23.20 -99.000   3.928   2.178   1.726 -99.000 -99.000 -99.000   3.418   2.178   1.116   0.000   0.123   1766.   1464.    939.    511.      0.     14.   0.928   0.121   0.019   0.011   0.007   0.006   0.004   0.008   0.005   0.007   0.218
 2020 170   367  18.10  31.10  23.00 -99.000   4.369   2.429   1.917 -99.000 -99.000 -99.000   3.803   2.429   1.208   0.000   0.167   1771.   1468.    942.    512.      0.     14.   0.301   0.223   0.070   0.058   0.049   0.048   0.043   0.107   0.088   0.222   0.243
 2020 171   368  18.90  32.10  23.90 -99.000   4.646   2.584   2.037 -99.000 -99.000 -99.000   4.043   2.584   1.296   0.000   0.163   1775.   1472.    944.    513.      0.     14.   0.329   0.240   0.076   0.061   0.052   0.050   0.046   0.113   0.094   0.236   0.258
 2020 172   369  19.10  32.40  23.90 -99.000   4.706   2.625   2.057 -99.000 -99.000 -99.000   4.098   2.625   1.292   0.000   0.181   1780.   1476.    947.    514.      0.     14.   0.319   0.241   0.077   0.061   0.052   0.050   0.046   0.114   0.094   0.239   0.262
 2020 173   370  15.90  30.80  24.50 -99.000   3.866   2.147   1.693 -99.000 -99.000 -99.000   3.358   2.147   1.081   0.000   0.130   1784.   1479.    949.    515.      0.     15.   0.902   0.116   0.018   0.010   0.007   0.005   0.004   0.007   0.004   0.007   0.215
 2020 174   371  18.50  30.60  22.60 -99.000   4.427   2.471   1.934 -99.000 -99.000 -99.000   3.853   2.471   1.183   0.000   0.199   1788.   1483.    952.    517.      0.     15.   0.303   0.222   0.070   0.055   0.045   0.044   0.041   0.102   0.085   0.216   0.247
 2020 175   372  19.10  31.50  23.60 -99.000   4.657   2.599   2.029 -99.000 -99.000 -99.000   4.048   2.599   1.294   0.000   0.156   1793.   1487.    954.    518.      0.     15.   0.331   0.246   0.079   0.062   0.049   0.048   0.044   0.110   0.091   0.234   0.260
 2020 176   373  17.00  30.60  23.00 -99.000   4.082   2.273   1.785 -99.000 -99.000 -99.000   3.547   2.273   1.144   0.000   0.131   1797.   1491.    957.    519.      0.     15.   0.294   0.217   0.070   0.056   0.042   0.042   0.039   0.097   0.081   0.207   0.227
 2020 177   374  18.80  32.10  22.40 -99.000   4.569   2.534   2.006 -99.000 -99.000 -99.000   3.965   2.534   1.238   0.000   0.192   1802.   1495.    959.    520.      0.     15.   0.313   0.236   0.076   0.062   0.046   0.045   0.042   0.105   0.088   0.226   0.253
 2020 178   375  17.00  29.40  23.60 -99.000   4.044   2.238   1.780 -99.000 -99.000 -99.000   3.506   2.238   1.147   0.000   0.121   1806.   1498.    961.    521.      0.     15.   0.955   0.126   0.020   0.012   0.007   0.005   0.004   0.008   0.004   0.007   0.224
 2020 179   376  17.40  30.70  24.00 -99.000   4.204   2.332   1.846 -99.000 -99.000 -99.000   3.646   2.332   1.188   0.000   0.126   1810.   1502.    964.    523.      0.     15.   0.977   0.137   0.021   0.013   0.007   0.006   0.005   0.008   0.005   0.008   0.233
 2020 180   377  17.80  30.00  23.20 -99.000   4.238   2.343   1.874 -99.000 -99.000 -99.000   3.675   2.343   1.254   0.000   0.079   1814.   1505.    966.    524.      0.     16.   1.042   0.139   0.022   0.013   0.007   0.006   0.004   0.008   0.005   0.008   0.234
 2020 181   378  15.10  28.90  23.20 -99.000   3.565   1.967   1.576 -99.000 -99.000 -99.000   3.086   1.967   0.915   0.000   0.204   1818.   1508.    968.    525.      0.     16.   0.242   0.178   0.058   0.047   0.033   0.031   0.029   0.074   0.062   0.162   0.197
 2020 182   379  16.00  31.50  23.00 -99.000   3.878   2.144   1.716 -99.000 -99.000 -99.000   3.361   2.144   1.078   0.000   0.140   1822.   1512.    970.    526.      0.     16.   0.290   0.207   0.068   0.056   0.042   0.036   0.034   0.085   0.072   0.188   0.214
 2020 183   380  17.50  32.60  23.70 -99.000   4.314   2.392   1.906 -99.000 -99.000 -99.000   3.743   2.392   1.139   0.000   0.212   1826.   1516.    972.    527.      0.     16.   0.295   0.221   0.073   0.061   0.049   0.039   0.036   0.091   0.076   0.201   0.239
 2020 184   381  17.60  32.60  24.50 -99.000   4.356   2.395   1.938 -99.000 -99.000 -99.000   3.769   2.395   1.212   0.000   0.161   1830.   1519.    975.    528.      0.     16.   0.307   0.235   0.076   0.064   0.053   0.044   0.038   0.098   0.082   0.217   0.240
 2020 185   382  16.40  30.20  23.10 -99.000   3.916   2.151   1.740 -99.000 -99.000 -99.000   3.383   2.151   1.080   0.000   0.151   1834.   1523.    977.    529.      0.     16.   0.276   0.211   0.068   0.058   0.049   0.043   0.037   0.085   0.070   0.185   0.215
 2020 186   383  16.30  27.90  22.60 -99.000   3.791   2.082   1.687 -99.000 -99.000 -99.000   3.275   2.082   0.999   0.000   0.194   1838.   1526.    979.    530.      0.     17.   0.260   0.191   0.064   0.054   0.046   0.043   0.037   0.079   0.061   0.163   0.208
 2020 187   384  16.20  30.60  23.00 -99.000   3.889   2.143   1.725 -99.000 -99.000 -99.000   3.362   2.143   1.044   0.000   0.175   1842.   1529.    981.    531.      0.     17.   0.269   0.196   0.066   0.056   0.047   0.045   0.040   0.088   0.065   0.171   0.214
 2020 188   385  17.70  31.30  23.30 -99.000   4.287   2.349   1.911 -99.000 -99.000 -99.000   3.699   2.349   1.151   0.000   0.199   1846.   1533.    984.    532.      0.     17.   0.286   0.216   0.072   0.061   0.052   0.050   0.045   0.102   0.075   0.193   0.235
 2020 189   386  17.40  30.10  23.10 -99.000   4.150   2.280   1.846 -99.000 -99.000 -99.000   3.583   2.280   1.119   0.000   0.183   1850.   1537.    986.    534.      0.     17.   0.281   0.208   0.069   0.058   0.049   0.047   0.043   0.100   0.076   0.187   0.228
 2020 190   387  17.50  30.90  23.10 -99.000   4.213   2.316   1.876 -99.000 -99.000 -99.000   3.638   2.316   1.123   0.000   0.199   1855.   1540.    988.    535.      0.     17.   0.279   0.211   0.068   0.057   0.048   0.046   0.042   0.101   0.081   0.191   0.232
 2020 191   388  16.80  30.80  23.20 -99.000   4.038   2.215   1.799 -99.000 -99.000 -99.000   3.483   2.215   1.144   0.000   0.123   1859.   1544.    990.    536.      0.     17.   0.279   0.213   0.069   0.058   0.049   0.047   0.043   0.104   0.085   0.197   0.222
 2020 192   389  17.20  27.20  22.40 -99.000   3.951   2.157   1.770 -99.000 -99.000 -99.000   3.404   2.157   1.153   0.000   0.094   1863.   1547.    993.    537.      0.     18.   0.281   0.214   0.070   0.059   0.050   0.047   0.043   0.103   0.085   0.203   0.216
 2020 193   390  16.40  28.60  22.50 -99.000   3.836   2.103   1.712 -99.000 -99.000 -99.000   3.306   2.103   0.997   0.000   0.207   1866.   1550.    995.    538.      0.     18.   0.239   0.181   0.061   0.052   0.044   0.042   0.038   0.087   0.073   0.180   0.210
 2020 194   391  16.80  29.70  23.40 -99.000   3.998   2.191   1.786 -99.000 -99.000 -99.000   3.446   2.191   1.102   0.000   0.153   1870.   1554.    997.    539.      0.     18.   0.264   0.203   0.066   0.056   0.047   0.045   0.041   0.098   0.081   0.203   0.219
 2020 195   392  16.40  30.10  23.40 -99.000   3.916   2.144   1.750 -99.000 -99.000 -99.000   3.373   2.144   1.135   0.000   0.094   1874.   1557.    999.    540.      0.     18.   0.268   0.209   0.068   0.057   0.048   0.046   0.042   0.102   0.084   0.211   0.214
 2020 196   393  16.40  27.80  23.10 -99.000   3.809   2.072   1.708 -99.000 -99.000 -99.000   3.270   2.072   1.141   0.000   0.058   1878.   1561.   1001.    541.      0.     18.   0.282   0.211   0.069   0.057   0.047   0.045   0.041   0.100   0.082   0.206   0.207
 2020 197   394  16.20  29.00  22.60 -99.000   3.807   2.081   1.701 -99.000 -99.000 -99.000   3.273   2.081   0.980   0.000   0.212   1882.   1564.   1003.    542.      0.     18.   0.242   0.182   0.059   0.049   0.041   0.039   0.035   0.086   0.070   0.177   0.208
 2020 198   395  15.30  30.10  22.90 -99.000   3.640   1.991   1.631 -99.000 -99.000 -99.000   3.134   1.991   1.012   0.000   0.130   1886.   1567.   1005.    543.      0.     18.   0.257   0.187   0.060   0.050   0.041   0.040   0.036   0.087   0.072   0.181   0.199
 2020 199   396  15.60  29.10  22.80 -99.000   3.675   2.010   1.644 -99.000 -99.000 -99.000   3.161   2.010   0.920   0.000   0.231   1889.   1570.   1007.    544.      0.     19.   0.237   0.170   0.055   0.046   0.038   0.036   0.032   0.078   0.065   0.163   0.201
 2020 200   397  17.40  30.10  23.00 -99.000   4.145   2.276   1.849 -99.000 -99.000 -99.000   3.569   2.276   1.133   0.000   0.161   1893.   1574.   1009.    545.      0.     19.   0.288   0.213   0.070   0.058   0.049   0.045   0.040   0.095   0.078   0.196   0.228
 2020 201   398  15.30  29.30  23.30 -99.000   3.624   1.993   1.612 -99.000 -99.000 -99.000   3.120   1.993   0.900   0.000   0.228   1897.   1577.   1011.    546.      0.     19.   0.228   0.170   0.056   0.047   0.040   0.037   0.033   0.075   0.061   0.152   0.199
 2020 202   399  16.00  29.20  22.40 -99.000   3.761   2.058   1.679 -99.000 -99.000 -99.000   3.232   2.058   0.999   0.000   0.175   1901.   1580.   1013.    547.      0.     19.   0.242   0.184   0.062   0.053   0.045   0.043   0.038   0.087   0.071   0.174   0.206
 2020 203   400  15.80  29.70  23.20 -99.000   3.750   2.054   1.676 -99.000 -99.000 -99.000   3.225   2.054   1.028   0.000   0.143   1904.   1583.   1016.    548.      0.     19.   0.247   0.190   0.062   0.052   0.044   0.042   0.038   0.091   0.075   0.187   0.205
 2020 204   401  17.00  31.60  22.50 -99.000   4.094   2.245   1.826 -99.000 -99.000 -99.000   3.520   2.245   1.187   0.000   0.087   1909.   1587.   1018.    550.      0.     19.   0.291   0.218   0.071   0.060   0.050   0.048   0.043   0.104   0.086   0.215   0.225
 2020 205   402  18.00  28.30  22.20 -99.000   4.179   2.297   1.852 -99.000 -99.000 -99.000   3.589   2.297   1.067   0.000   0.225   1913.   1590.   1020.    551.      0.     20.   0.262   0.198   0.064   0.053   0.045   0.043   0.039   0.094   0.078   0.194   0.230
 2020 206   403  16.50  29.20  23.10 -99.000   3.890   2.154   1.710 -99.000 -99.000 -99.000   3.346   2.154   1.042   0.000   0.150   1917.   1594.   1022.    552.      0.     20.   0.866   0.114   0.018   0.011   0.007   0.005   0.004   0.007   0.004   0.007   0.215
 2020 207   404  14.90  28.00  23.50 -99.000   3.475   1.919   1.531 -99.000 -99.000 -99.000   2.987   1.919   0.886   0.000   0.181   1920.   1597.   1024.    553.      0.     20.   0.730   0.101   0.016   0.010   0.006   0.005   0.004   0.007   0.004   0.006   0.192
 2020 208   405  16.10  30.30  23.30 -99.000   3.839   2.124   1.688 -99.000 -99.000 -99.000   3.300   2.124   1.029   0.000   0.147   1924.   1600.   1026.    554.      0.     20.   0.839   0.122   0.019   0.012   0.007   0.006   0.005   0.008   0.005   0.007   0.212
 2020 209   406  15.00  28.30  21.80 -99.000   3.459   1.916   1.517 -99.000 -99.000 -99.000   2.973   1.916   0.949   0.000   0.108   1927.   1603.   1028.    555.      0.     20.   0.765   0.117   0.018   0.011   0.007   0.006   0.004   0.008   0.005   0.007   0.192
