*MANAGEMENT OPERATIONS DAILY OUTPUT FILE

*DSSAT Cropping System Model Ver. 4.8.0.010 -develop  AUG 03, 2021 18:13:11

*RUN   1        : IITA-TMS-IBA000070        CSYCA048 UYAB1901    1
 MODEL          : CSYCA048 - Cassava
 EXPERIMENT     : UYAB1901 CS UYT_GXE
 DATA PATH      : C:\DSSAT48\CASSAVA\
 TREATMENT  1   : IITA-TMS-IBA000070        CSYCA048
  

@YEAR DOY   DAS   DAP  IR#C  IRRC  TL#C  TLDD DLYR3   TLBD  R#AC RESNC RESPC
 2019 169     1     0     0     0     0     0    20  1.365     0     0     0
 2019 170     2     1     0     0     0     0    20  1.365     0     0     0
 2019 171     3     2     0     0     0     0    20  1.365     0     0     0
 2019 172     4     3     0     0     0     0    20  1.365     0     0     0
 2019 173     5     4     0     0     0     0    20  1.365     0     0     0
 2019 174     6     5     0     0     0     0    20  1.365     0     0     0
 2019 175     7     6     0     0     0     0    20  1.365     0     0     0
 2019 176     8     7     0     0     0     0    20  1.365     0     0     0
 2019 177     9     8     0     0     0     0    20  1.365     0     0     0
 2019 178    10     9     0     0     0     0    20  1.365     0     0     0
 2019 179    11    10     0     0     0     0    20  1.365     0     0     0
 2019 180    12    11     0     0     0     0    20  1.365     0     0     0
 2019 181    13    12     0     0     0     0    20  1.365     0     0     0
 2019 182    14    13     0     0     0     0    20  1.365     0     0     0
 2019 183    15    14     0     0     0     0    20  1.365     0     0     0
 2019 184    16    15     0     0     0     0    20  1.365     0     0     0
 2019 185    17    16     0     0     0     0    20  1.365     0     0     0
 2019 186    18    17     0     0     0     0    20  1.365     0     0     0
 2019 187    19    18     0     0     0     0    20  1.365     0     0     0
 2019 188    20    19     0     0     0     0    20  1.365     0     0     0
 2019 189    21    20     0     0     0     0    20  1.365     0     0     0
 2019 190    22    21     0     0     0     0    20  1.365     0     0     0
 2019 191    23    22     0     0     0     0    20  1.365     0     0     0
 2019 192    24    23     0     0     0     0    20  1.365     0     0     0
 2019 193    25    24     0     0     0     0    20  1.365     0     0     0
 2019 194    26    25     0     0     0     0    20  1.365     0     0     0
 2019 195    27    26     0     0     0     0    20  1.365     0     0     0
 2019 196    28    27     0     0     0     0    20  1.365     0     0     0
 2019 197    29    28     0     0     0     0    20  1.365     0     0     0
 2019 198    30    29     0     0     0     0    20  1.365     0     0     0
 2019 199    31    30     0     0     0     0    20  1.365     0     0     0
 2019 200    32    31     0     0     0     0    20  1.365     0     0     0
 2019 201    33    32     0     0     0     0    20  1.365     0     0     0
 2019 202    34    33     0     0     0     0    20  1.365     0     0     0
 2019 203    35    34     0     0     0     0    20  1.365     0     0     0
 2019 204    36    35     0     0     0     0    20  1.365     0     0     0
 2019 205    37    36     0     0     0     0    20  1.365     0     0     0
 2019 206    38    37     0     0     0     0    20  1.365     0     0     0
 2019 207    39    38     0     0     0     0    20  1.365     0     0     0
 2019 208    40    39     0     0     0     0    20  1.365     0     0     0
 2019 209    41    40     0     0     0     0    20  1.365     0     0     0
 2019 210    42    41     0     0     0     0    20  1.365     0     0     0
 2019 211    43    42     0     0     0     0    20  1.365     0     0     0
 2019 212    44    43     0     0     0     0    20  1.365     0     0     0
 2019 213    45    44     0     0     0     0    20  1.365     0     0     0
 2019 214    46    45     0     0     0     0    20  1.365     0     0     0
 2019 215    47    46     0     0     0     0    20  1.365     0     0     0
 2019 216    48    47     0     0     0     0    20  1.365     0     0     0
 2019 217    49    48     0     0     0     0    20  1.365     0     0     0
 2019 218    50    49     0     0     0     0    20  1.365     0     0     0
 2019 219    51    50     0     0     0     0    20  1.365     0     0     0
 2019 220    52    51     0     0     0     0    20  1.365     0     0     0
 2019 221    53    52     0     0     0     0    20  1.365     0     0     0
 2019 222    54    53     0     0     0     0    20  1.365     0     0     0
 2019 223    55    54     0     0     0     0    20  1.365     0     0     0
 2019 224    56    55     0     0     0     0    20  1.365     0     0     0
 2019 225    57    56     0     0     0     0    20  1.365     0     0     0
 2019 226    58    57     0     0     0     0    20  1.365     0     0     0
 2019 227    59    58     0     0     0     0    20  1.365     0     0     0
 2019 228    60    59     0     0     0     0    20  1.365     0     0     0
 2019 229    61    60     0     0     0     0    20  1.365     0     0     0
 2019 230    62    61     0     0     0     0    20  1.365     0     0     0
 2019 231    63    62     0     0     0     0    20  1.365     0     0     0
 2019 232    64    63     0     0     0     0    20  1.365     0     0     0
 2019 233    65    64     0     0     0     0    20  1.365     0     0     0
 2019 234    66    65     0     0     0     0    20  1.365     0     0     0
 2019 235    67    66     0     0     0     0    20  1.365     0     0     0
 2019 236    68    67     0     0     0     0    20  1.365     0     0     0
 2019 237    69    68     0     0     0     0    20  1.365     0     0     0
 2019 238    70    69     0     0     0     0    20  1.365     0     0     0
 2019 239    71    70     0     0     0     0    20  1.365     0     0     0
 2019 240    72    71     0     0     0     0    20  1.365     0     0     0
 2019 241    73    72     0     0     0     0    20  1.365     0     0     0
 2019 242    74    73     0     0     0     0    20  1.365     0     0     0
 2019 243    75    74     0     0     0     0    20  1.365     0     0     0
 2019 244    76    75     0     0     0     0    20  1.365     0     0     0
 2019 245    77    76     0     0     0     0    20  1.365     0     0     0
 2019 246    78    77     0     0     0     0    20  1.365     0     0     0
 2019 247    79    78     0     0     0     0    20  1.365     0     0     0
 2019 248    80    79     0     0     0     0    20  1.365     0     0     0
 2019 249    81    80     0     0     0     0    20  1.365     0     0     0
 2019 250    82    81     0     0     0     0    20  1.365     0     0     0
 2019 251    83    82     0     0     0     0    20  1.365     0     0     0
 2019 252    84    83     0     0     0     0    20  1.365     0     0     0
 2019 253    85    84     0     0     0     0    20  1.365     0     0     0
 2019 254    86    85     0     0     0     0    20  1.365     0     0     0
 2019 255    87    86     0     0     0     0    20  1.365     0     0     0
 2019 256    88    87     0     0     0     0    20  1.365     0     0     0
 2019 257    89    88     0     0     0     0    20  1.365     0     0     0
 2019 258    90    89     0     0     0     0    20  1.365     0     0     0
 2019 259    91    90     0     0     0     0    20  1.365     0     0     0
 2019 260    92    91     0     0     0     0    20  1.365     0     0     0
 2019 261    93    92     0     0     0     0    20  1.365     0     0     0
 2019 262    94    93     0     0     0     0    20  1.365     0     0     0
 2019 263    95    94     0     0     0     0    20  1.365     0     0     0
 2019 264    96    95     0     0     0     0    20  1.365     0     0     0
 2019 265    97    96     0     0     0     0    20  1.365     0     0     0
 2019 266    98    97     0     0     0     0    20  1.365     0     0     0
 2019 267    99    98     0     0     0     0    20  1.365     0     0     0
 2019 268   100    99     0     0     0     0    20  1.365     0     0     0
 2019 269   101   100     0     0     0     0    20  1.365     0     0     0
 2019 270   102   101     0     0     0     0    20  1.365     0     0     0
 2019 271   103   102     0     0     0     0    20  1.365     0     0     0
 2019 272   104   103     0     0     0     0    20  1.365     0     0     0
 2019 273   105   104     0     0     0     0    20  1.365     0     0     0
 2019 274   106   105     0     0     0     0    20  1.365     0     0     0
 2019 275   107   106     0     0     0     0    20  1.365     0     0     0
 2019 276   108   107     0     0     0     0    20  1.365     0     0     0
 2019 277   109   108     0     0     0     0    20  1.365     0     0     0
 2019 278   110   109     0     0     0     0    20  1.365     0     0     0
 2019 279   111   110     0     0     0     0    20  1.365     0     0     0
 2019 280   112   111     0     0     0     0    20  1.365     0     0     0
 2019 281   113   112     0     0     0     0    20  1.365     0     0     0
 2019 282   114   113     0     0     0     0    20  1.365     0     0     0
 2019 283   115   114     0     0     0     0    20  1.365     0     0     0
 2019 284   116   115     0     0     0     0    20  1.365     0     0     0
 2019 285   117   116     0     0     0     0    20  1.365     0     0     0
 2019 286   118   117     0     0     0     0    20  1.365     0     0     0
 2019 287   119   118     0     0     0     0    20  1.365     0     0     0
 2019 288   120   119     0     0     0     0    20  1.365     0     0     0
 2019 289   121   120     0     0     0     0    20  1.365     0     0     0
 2019 290   122   121     0     0     0     0    20  1.365     0     0     0
 2019 291   123   122     0     0     0     0    20  1.365     0     0     0
 2019 292   124   123     0     0     0     0    20  1.365     0     0     0
 2019 293   125   124     0     0     0     0    20  1.365     0     0     0
 2019 294   126   125     0     0     0     0    20  1.365     0     0     0
 2019 295   127   126     0     0     0     0    20  1.365     0     0     0
 2019 296   128   127     0     0     0     0    20  1.365     0     0     0
 2019 297   129   128     0     0     0     0    20  1.365     0     0     0
 2019 298   130   129     0     0     0     0    20  1.365     0     0     0
 2019 299   131   130     0     0     0     0    20  1.365     0     0     0
 2019 300   132   131     0     0     0     0    20  1.365     0     0     0
 2019 301   133   132     0     0     0     0    20  1.365     0     0     0
 2019 302   134   133     0     0     0     0    20  1.365     0     0     0
 2019 303   135   134     0     0     0     0    20  1.365     0     0     0
 2019 304   136   135     0     0     0     0    20  1.365     0     0     0
 2019 305   137   136     0     0     0     0    20  1.365     0     0     0
 2019 306   138   137     0     0     0     0    20  1.365     0     0     0
 2019 307   139   138     0     0     0     0    20  1.365     0     0     0
 2019 308   140   139     0     0     0     0    20  1.365     0     0     0
 2019 309   141   140     0     0     0     0    20  1.365     0     0     0
 2019 310   142   141     0     0     0     0    20  1.365     0     0     0
 2019 311   143   142     0     0     0     0    20  1.365     0     0     0
 2019 312   144   143     0     0     0     0    20  1.365     0     0     0
 2019 313   145   144     0     0     0     0    20  1.365     0     0     0
 2019 314   146   145     0     0     0     0    20  1.365     0     0     0
 2019 315   147   146     0     0     0     0    20  1.365     0     0     0
 2019 316   148   147     0     0     0     0    20  1.365     0     0     0
 2019 317   149   148     0     0     0     0    20  1.365     0     0     0
 2019 318   150   149     0     0     0     0    20  1.365     0     0     0
 2019 319   151   150     0     0     0     0    20  1.365     0     0     0
 2019 320   152   151     0     0     0     0    20  1.365     0     0     0
 2019 321   153   152     0     0     0     0    20  1.365     0     0     0
 2019 322   154   153     0     0     0     0    20  1.365     0     0     0
 2019 323   155   154     0     0     0     0    20  1.365     0     0     0
 2019 324   156   155     1    26     0     0    20  1.365     0     0     0
 2019 325   157   156     1    26     0     0    20  1.365     0     0     0
 2019 326   158   157     1    26     0     0    20  1.365     0     0     0
 2019 327   159   158     1    26     0     0    20  1.365     0     0     0
 2019 328   160   159     1    26     0     0    20  1.365     0     0     0
 2019 329   161   160     1    26     0     0    20  1.365     0     0     0
 2019 330   162   161     1    26     0     0    20  1.365     0     0     0
 2019 331   163   162     1    26     0     0    20  1.365     0     0     0
 2019 332   164   163     1    26     0     0    20  1.365     0     0     0
 2019 333   165   164     1    26     0     0    20  1.365     0     0     0
 2019 334   166   165     1    26     0     0    20  1.365     0     0     0
 2019 335   167   166     2    53     0     0    20  1.365     0     0     0
 2019 336   168   167     2    53     0     0    20  1.365     0     0     0
 2019 337   169   168     2    53     0     0    20  1.365     0     0     0
 2019 338   170   169     2    53     0     0    20  1.365     0     0     0
 2019 339   171   170     2    53     0     0    20  1.365     0     0     0
 2019 340   172   171     2    53     0     0    20  1.365     0     0     0
 2019 341   173   172     2    53     0     0    20  1.365     0     0     0
 2019 342   174   173     2    53     0     0    20  1.365     0     0     0
 2019 343   175   174     2    53     0     0    20  1.365     0     0     0
 2019 344   176   175     3    80     0     0    20  1.365     0     0     0
 2019 345   177   176     3    80     0     0    20  1.365     0     0     0
 2019 346   178   177     3    80     0     0    20  1.365     0     0     0
 2019 347   179   178     3    80     0     0    20  1.365     0     0     0
 2019 348   180   179     3    80     0     0    20  1.365     0     0     0
 2019 349   181   180     3    80     0     0    20  1.365     0     0     0
 2019 350   182   181     3    80     0     0    20  1.365     0     0     0
 2019 351   183   182     4   105     0     0    20  1.365     0     0     0
 2019 352   184   183     4   105     0     0    20  1.365     0     0     0
 2019 353   185   184     4   105     0     0    20  1.365     0     0     0
 2019 354   186   185     4   105     0     0    20  1.365     0     0     0
 2019 355   187   186     4   105     0     0    20  1.365     0     0     0
 2019 356   188   187     4   105     0     0    20  1.365     0     0     0
 2019 357   189   188     4   105     0     0    20  1.365     0     0     0
 2019 358   190   189     5   131     0     0    20  1.365     0     0     0
 2019 359   191   190     5   131     0     0    20  1.365     0     0     0
 2019 360   192   191     5   131     0     0    20  1.365     0     0     0
 2019 361   193   192     5   131     0     0    20  1.364     0     0     0
 2019 362   194   193     5   131     0     0    20  1.364     0     0     0
 2019 363   195   194     5   131     0     0    20  1.364     0     0     0
 2019 364   196   195     5   131     0     0    20  1.364     0     0     0
 2019 365   197   196     6   159     0     0    20  1.364     0     0     0
 2020 001   198   197     6   159     0     0    20  1.364     0     0     0
 2020 002   199   198     6   159     0     0    20  1.364     0     0     0
 2020 003   200   199     6   159     0     0    20  1.364     0     0     0
 2020 004   201   200     6   159     0     0    20  1.364     0     0     0
 2020 005   202   201     6   159     0     0    20  1.364     0     0     0
 2020 006   203   202     6   159     0     0    20  1.364     0     0     0
 2020 007   204   203     7   184     0     0    20  1.364     0     0     0
 2020 008   205   204     7   184     0     0    20  1.364     0     0     0
 2020 009   206   205     7   184     0     0    20  1.364     0     0     0
 2020 010   207   206     7   184     0     0    20  1.364     0     0     0
 2020 011   208   207     7   184     0     0    20  1.364     0     0     0
 2020 012   209   208     7   184     0     0    20  1.364     0     0     0
 2020 013   210   209     7   184     0     0    20  1.364     0     0     0
 2020 014   211   210     8   212     0     0    20  1.364     0     0     0
 2020 015   212   211     8   212     0     0    20  1.364     0     0     0
 2020 016   213   212     8   212     0     0    20  1.364     0     0     0
 2020 017   214   213     8   212     0     0    20  1.364     0     0     0
 2020 018   215   214     8   212     0     0    20  1.364     0     0     0
 2020 019   216   215     8   212     0     0    20  1.364     0     0     0
 2020 020   217   216     8   212     0     0    20  1.364     0     0     0
 2020 021   218   217     8   212     0     0    20  1.364     0     0     0
 2020 022   219   218     9   240     0     0    20  1.364     0     0     0
 2020 023   220   219     9   240     0     0    20  1.364     0     0     0
 2020 024   221   220     9   240     0     0    20  1.364     0     0     0
 2020 025   222   221     9   240     0     0    20  1.364     0     0     0
 2020 026   223   222     9   240     0     0    20  1.364     0     0     0
 2020 027   224   223     9   240     0     0    20  1.364     0     0     0
 2020 028   225   224    10   266     0     0    20  1.364     0     0     0
 2020 029   226   225    10   266     0     0    20  1.364     0     0     0
 2020 030   227   226    10   266     0     0    20  1.364     0     0     0
 2020 031   228   227    10   266     0     0    20  1.364     0     0     0
 2020 032   229   228    10   266     0     0    20  1.364     0     0     0
 2020 033   230   229    10   266     0     0    20  1.364     0     0     0
 2020 034   231   230    11   292     0     0    20  1.364     0     0     0
 2020 035   232   231    11   292     0     0    20  1.364     0     0     0
 2020 036   233   232    11   292     0     0    20  1.364     0     0     0
 2020 037   234   233    11   292     0     0    20  1.364     0     0     0
 2020 038   235   234    11   292     0     0    20  1.363     0     0     0
 2020 039   236   235    11   292     0     0    20  1.363     0     0     0
 2020 040   237   236    11   292     0     0    20  1.363     0     0     0
 2020 041   238   237    12   320     0     0    20  1.363     0     0     0
 2020 042   239   238    12   320     0     0    20  1.363     0     0     0
 2020 043   240   239    12   320     0     0    20  1.363     0     0     0
 2020 044   241   240    12   320     0     0    20  1.363     0     0     0
 2020 045   242   241    12   320     0     0    20  1.363     0     0     0
 2020 046   243   242    12   320     0     0    20  1.363     0     0     0
 2020 047   244   243    13   346     0     0    20  1.363     0     0     0
 2020 048   245   244    13   346     0     0    20  1.363     0     0     0
 2020 049   246   245    13   346     0     0    20  1.363     0     0     0
 2020 050   247   246    13   346     0     0    20  1.363     0     0     0
 2020 051   248   247    13   346     0     0    20  1.363     0     0     0
 2020 052   249   248    13   346     0     0    20  1.363     0     0     0
 2020 053   250   249    14   374     0     0    20  1.363     0     0     0
 2020 054   251   250    14   374     0     0    20  1.363     0     0     0
 2020 055   252   251    14   374     0     0    20  1.363     0     0     0
 2020 056   253   252    14   374     0     0    20  1.363     0     0     0
 2020 057   254   253    14   374     0     0    20  1.363     0     0     0
 2020 058   255   254    14   374     0     0    20  1.363     0     0     0
 2020 059   256   255    15   402     0     0    20  1.363     0     0     0
 2020 060   257   256    15   402     0     0    20  1.363     0     0     0
 2020 061   258   257    15   402     0     0    20  1.363     0     0     0
 2020 062   259   258    15   402     0     0    20  1.363     0     0     0
 2020 063   260   259    15   402     0     0    20  1.363     0     0     0
 2020 064   261   260    15   402     0     0    20  1.363     0     0     0
 2020 065   262   261    16   432     0     0    20  1.363     0     0     0
 2020 066   263   262    16   432     0     0    20  1.363     0     0     0
 2020 067   264   263    16   432     0     0    20  1.363     0     0     0
 2020 068   265   264    16   432     0     0    20  1.363     0     0     0
 2020 069   266   265    16   432     0     0    20  1.363     0     0     0
 2020 070   267   266    16   432     0     0    20  1.363     0     0     0
 2020 071   268   267    17   462     0     0    20  1.363     0     0     0
 2020 072   269   268    17   462     0     0    20  1.363     0     0     0
 2020 073   270   269    17   462     0     0    20  1.363     0     0     0
 2020 074   271   270    17   462     0     0    20  1.363     0     0     0
 2020 075   272   271    17   462     0     0    20  1.363     0     0     0
 2020 076   273   272    17   462     0     0    20  1.363     0     0     0
 2020 077   274   273    18   489     0     0    20  1.363     0     0     0
 2020 078   275   274    18   489     0     0    20  1.363     0     0     0
 2020 079   276   275    18   489     0     0    20  1.363     0     0     0
 2020 080   277   276    18   489     0     0    20  1.363     0     0     0
 2020 081   278   277    18   489     0     0    20  1.363     0     0     0
 2020 082   279   278    19   515     0     0    20  1.363     0     0     0
 2020 083   280   279    19   515     0     0    20  1.363     0     0     0
 2020 084   281   280    19   515     0     0    20  1.363     0     0     0
 2020 085   282   281    19   515     0     0    20  1.363     0     0     0
 2020 086   283   282    19   515     0     0    20  1.363     0     0     0
 2020 087   284   283    19   515     0     0    20  1.363     0     0     0
 2020 088   285   284    19   515     0     0    20  1.363     0     0     0
 2020 089   286   285    20   541     0     0    20  1.363     0     0     0
 2020 090   287   286    20   541     0     0    20  1.363     0     0     0
 2020 091   288   287    20   541     0     0    20  1.363     0     0     0
 2020 092   289   288    20   541     0     0    20  1.363     0     0     0
 2020 093   290   289    20   541     0     0    20  1.363     0     0     0
 2020 094   291   290    20   541     0     0    20  1.363     0     0     0
 2020 095   292   291    20   541     0     0    20  1.363     0     0     0
 2020 096   293   292    20   541     0     0    20  1.363     0     0     0
 2020 097   294   293    21   566     0     0    20  1.363     0     0     0
 2020 098   295   294    21   566     0     0    20  1.363     0     0     0
 2020 099   296   295    21   566     0     0    20  1.363     0     0     0
 2020 100   297   296    21   566     0     0    20  1.362     0     0     0
 2020 101   298   297    21   566     0     0    20  1.362     0     0     0
 2020 102   299   298    21   566     0     0    20  1.362     0     0     0
 2020 103   300   299    21   566     0     0    20  1.362     0     0     0
 2020 104   301   300    21   566     0     0    20  1.362     0     0     0
 2020 105   302   301    21   566     0     0    20  1.362     0     0     0
 2020 106   303   302    21   566     0     0    20  1.362     0     0     0
 2020 107   304   303    21   566     0     0    20  1.362     0     0     0
 2020 108   305   304    22   595     0     0    20  1.362     0     0     0
 2020 109   306   305    22   595     0     0    20  1.362     0     0     0
 2020 110   307   306    22   595     0     0    20  1.362     0     0     0
 2020 111   308   307    22   595     0     0    20  1.362     0     0     0
 2020 112   309   308    22   595     0     0    20  1.362     0     0     0
 2020 113   310   309    22   595     0     0    20  1.362     0     0     0
 2020 114   311   310    23   622     0     0    20  1.362     0     0     0
 2020 115   312   311    23   622     0     0    20  1.362     0     0     0
 2020 116   313   312    23   622     0     0    20  1.362     0     0     0
 2020 117   314   313    23   622     0     0    20  1.362     0     0     0
 2020 118   315   314    23   622     0     0    20  1.362     0     0     0
 2020 119   316   315    23   622     0     0    20  1.362     0     0     0
 2020 120   317   316    23   622     0     0    20  1.362     0     0     0
 2020 121   318   317    23   622     0     0    20  1.362     0     0     0
 2020 122   319   318    23   622     0     0    20  1.362     0     0     0
 2020 123   320   319    23   622     0     0    20  1.362     0     0     0
 2020 124   321   320    23   622     0     0    20  1.362     0     0     0
 2020 125   322   321    23   622     0     0    20  1.362     0     0     0
 2020 126   323   322    23   622     0     0    20  1.362     0     0     0
 2020 127   324   323    23   622     0     0    20  1.362     0     0     0
 2020 128   325   324    23   622     0     0    20  1.362     0     0     0
 2020 129   326   325    23   622     0     0    20  1.362     0     0     0
 2020 130   327   326    24   651     0     0    20  1.362     0     0     0
 2020 131   328   327    24   651     0     0    20  1.362     0     0     0
 2020 132   329   328    24   651     0     0    20  1.362     0     0     0
 2020 133   330   329    24   651     0     0    20  1.362     0     0     0
 2020 134   331   330    24   651     0     0    20  1.362     0     0     0
 2020 135   332   331    24   651     0     0    20  1.362     0     0     0
 2020 136   333   332    24   651     0     0    20  1.362     0     0     0
 2020 137   334   333    24   651     0     0    20  1.362     0     0     0
 2020 138   335   334    24   651     0     0    20  1.362     0     0     0
 2020 139   336   335    24   651     0     0    20  1.362     0     0     0
 2020 140   337   336    24   651     0     0    20  1.362     0     0     0
 2020 141   338   337    24   651     0     0    20  1.362     0     0     0
 2020 142   339   338    24   651     0     0    20  1.362     0     0     0
 2020 143   340   339    24   651     0     0    20  1.362     0     0     0
 2020 144   341   340    24   651     0     0    20  1.362     0     0     0
 2020 145   342   341    24   651     0     0    20  1.362     0     0     0
 2020 146   343   342    24   651     0     0    20  1.362     0     0     0
 2020 147   344   343    24   651     0     0    20  1.362     0     0     0
 2020 148   345   344    24   651     0     0    20  1.362     0     0     0
 2020 149   346   345    24   651     0     0    20  1.362     0     0     0
 2020 150   347   346    24   651     0     0    20  1.362     0     0     0
 2020 151   348   347    24   651     0     0    20  1.362     0     0     0
 2020 152   349   348    24   651     0     0    20  1.362     0     0     0
 2020 153   350   349    24   651     0     0    20  1.362     0     0     0
 2020 154   351   350    24   651     0     0    20  1.362     0     0     0
 2020 155   352   351    24   651     0     0    20  1.362     0     0     0
 2020 156   353   352    24   651     0     0    20  1.361     0     0     0
 2020 157   354   353    24   651     0     0    20  1.361     0     0     0
 2020 158   355   354    24   651     0     0    20  1.361     0     0     0
 2020 159   356   355    24   651     0     0    20  1.361     0     0     0
 2020 160   357   356    24   651     0     0    20  1.361     0     0     0
 2020 161   358   357    24   651     0     0    20  1.361     0     0     0
 2020 162   359   358    24   651     0     0    20  1.361     0     0     0
 2020 163   360   359    24   651     0     0    20  1.361     0     0     0
 2020 164   361   360    24   651     0     0    20  1.361     0     0     0
 2020 165   362   361    24   651     0     0    20  1.361     0     0     0
 2020 166   363   362    24   651     0     0    20  1.361     0     0     0
 2020 167   364   363    24   651     0     0    20  1.361     0     0     0
 2020 168   365   364    24   651     0     0    20  1.361     0     0     0
 2020 169   366   365    24   651     0     0    20  1.361     0     0     0
 2020 170   367   366    24   651     0     0    20  1.361     0     0     0
 2020 171   368   367    24   651     0     0    20  1.361     0     0     0
 2020 172   369   368    24   651     0     0    20  1.361     0     0     0
 2020 173   370   369    24   651     0     0    20  1.361     0     0     0
 2020 174   371   370    24   651     0     0    20  1.361     0     0     0
 2020 175   372   371    24   651     0     0    20  1.361     0     0     0
 2020 176   373   372    24   651     0     0    20  1.361     0     0     0
 2020 177   374   373    24   651     0     0    20  1.361     0     0     0
 2020 178   375   374    24   651     0     0    20  1.361     0     0     0
 2020 179   376   375    24   651     0     0    20  1.361     0     0     0
 2020 180   377   376    24   651     0     0    20  1.361     0     0     0
 2020 181   378   377    24   651     0     0    20  1.361     0     0     0
 2020 182   379   378    24   651     0     0    20  1.361     0     0     0
 2020 183   380   379    24   651     0     0    20  1.361     0     0     0
 2020 184   381   380    24   651     0     0    20  1.361     0     0     0
 2020 185   382   381    24   651     0     0    20  1.361     0     0     0
 2020 186   383   382    24   651     0     0    20  1.361     0     0     0
 2020 187   384   383    24   651     0     0    20  1.361     0     0     0
 2020 188   385   384    24   651     0     0    20  1.361     0     0     0
 2020 189   386   385    24   651     0     0    20  1.361     0     0     0
 2020 190   387   386    24   651     0     0    20  1.361     0     0     0
 2020 191   388   387    24   651     0     0    20  1.361     0     0     0
 2020 192   389   388    24   651     0     0    20  1.360     0     0     0
 2020 193   390   389    24   651     0     0    20  1.360     0     0     0
 2020 194   391   390    24   651     0     0    20  1.360     0     0     0
 2020 195   392   391    24   651     0     0    20  1.360     0     0     0
 2020 196   393   392    24   651     0     0    20  1.360     0     0     0
 2020 197   394   393    24   651     0     0    20  1.360     0     0     0
 2020 198   395   394    24   651     0     0    20  1.360     0     0     0
 2020 199   396   395    24   651     0     0    20  1.360     0     0     0
 2020 200   397   396    24   651     0     0    20  1.360     0     0     0
 2020 201   398   397    24   651     0     0    20  1.360     0     0     0
 2020 202   399   398    24   651     0     0    20  1.360     0     0     0
 2020 203   400   399    24   651     0     0    20  1.360     0     0     0
 2020 204   401   400    24   651     0     0    20  1.360     0     0     0
 2020 205   402   401    24   651     0     0    20  1.360     0     0     0
 2020 206   403   402    24   651     0     0    20  1.360     0     0     0
 2020 207   404   403    24   651     0     0    20  1.360     0     0     0
 2020 208   405   404    24   651     0     0    20  1.360     0     0     0
 2020 209   406   405    24   651     0     0    20  1.360     0     0     0

*DSSAT Cropping System Model Ver. 4.8.0.010 -develop  AUG 03, 2021 18:13:13

*RUN   2        : IITA-TMS-IBA30572         CSYCA048 UYAB1901    2
 MODEL          : CSYCA048 - Cassava
 EXPERIMENT     : UYAB1901 CS UYT_GXE
 DATA PATH      : C:\DSSAT48\CASSAVA\
 TREATMENT  2   : IITA-TMS-IBA30572         CSYCA048
  

@YEAR DOY   DAS   DAP  IR#C  IRRC  TL#C  TLDD DLYR3   TLBD  R#AC RESNC RESPC
 2019 169     1     0     0     0     0     0    20  1.365     0     0     0
 2019 170     2     1     0     0     0     0    20  1.365     0     0     0
 2019 171     3     2     0     0     0     0    20  1.365     0     0     0
 2019 172     4     3     0     0     0     0    20  1.365     0     0     0
 2019 173     5     4     0     0     0     0    20  1.365     0     0     0
 2019 174     6     5     0     0     0     0    20  1.365     0     0     0
 2019 175     7     6     0     0     0     0    20  1.365     0     0     0
 2019 176     8     7     0     0     0     0    20  1.365     0     0     0
 2019 177     9     8     0     0     0     0    20  1.365     0     0     0
 2019 178    10     9     0     0     0     0    20  1.365     0     0     0
 2019 179    11    10     0     0     0     0    20  1.365     0     0     0
 2019 180    12    11     0     0     0     0    20  1.365     0     0     0
 2019 181    13    12     0     0     0     0    20  1.365     0     0     0
 2019 182    14    13     0     0     0     0    20  1.365     0     0     0
 2019 183    15    14     0     0     0     0    20  1.365     0     0     0
 2019 184    16    15     0     0     0     0    20  1.365     0     0     0
 2019 185    17    16     0     0     0     0    20  1.365     0     0     0
 2019 186    18    17     0     0     0     0    20  1.365     0     0     0
 2019 187    19    18     0     0     0     0    20  1.365     0     0     0
 2019 188    20    19     0     0     0     0    20  1.365     0     0     0
 2019 189    21    20     0     0     0     0    20  1.365     0     0     0
 2019 190    22    21     0     0     0     0    20  1.365     0     0     0
 2019 191    23    22     0     0     0     0    20  1.365     0     0     0
 2019 192    24    23     0     0     0     0    20  1.365     0     0     0
 2019 193    25    24     0     0     0     0    20  1.365     0     0     0
 2019 194    26    25     0     0     0     0    20  1.365     0     0     0
 2019 195    27    26     0     0     0     0    20  1.365     0     0     0
 2019 196    28    27     0     0     0     0    20  1.365     0     0     0
 2019 197    29    28     0     0     0     0    20  1.365     0     0     0
 2019 198    30    29     0     0     0     0    20  1.365     0     0     0
 2019 199    31    30     0     0     0     0    20  1.365     0     0     0
 2019 200    32    31     0     0     0     0    20  1.365     0     0     0
 2019 201    33    32     0     0     0     0    20  1.365     0     0     0
 2019 202    34    33     0     0     0     0    20  1.365     0     0     0
 2019 203    35    34     0     0     0     0    20  1.365     0     0     0
 2019 204    36    35     0     0     0     0    20  1.365     0     0     0
 2019 205    37    36     0     0     0     0    20  1.365     0     0     0
 2019 206    38    37     0     0     0     0    20  1.365     0     0     0
 2019 207    39    38     0     0     0     0    20  1.365     0     0     0
 2019 208    40    39     0     0     0     0    20  1.365     0     0     0
 2019 209    41    40     0     0     0     0    20  1.365     0     0     0
 2019 210    42    41     0     0     0     0    20  1.365     0     0     0
 2019 211    43    42     0     0     0     0    20  1.365     0     0     0
 2019 212    44    43     0     0     0     0    20  1.365     0     0     0
 2019 213    45    44     0     0     0     0    20  1.365     0     0     0
 2019 214    46    45     0     0     0     0    20  1.365     0     0     0
 2019 215    47    46     0     0     0     0    20  1.365     0     0     0
 2019 216    48    47     0     0     0     0    20  1.365     0     0     0
 2019 217    49    48     0     0     0     0    20  1.365     0     0     0
 2019 218    50    49     0     0     0     0    20  1.365     0     0     0
 2019 219    51    50     0     0     0     0    20  1.365     0     0     0
 2019 220    52    51     0     0     0     0    20  1.365     0     0     0
 2019 221    53    52     0     0     0     0    20  1.365     0     0     0
 2019 222    54    53     0     0     0     0    20  1.365     0     0     0
 2019 223    55    54     0     0     0     0    20  1.365     0     0     0
 2019 224    56    55     0     0     0     0    20  1.365     0     0     0
 2019 225    57    56     0     0     0     0    20  1.365     0     0     0
 2019 226    58    57     0     0     0     0    20  1.365     0     0     0
 2019 227    59    58     0     0     0     0    20  1.365     0     0     0
 2019 228    60    59     0     0     0     0    20  1.365     0     0     0
 2019 229    61    60     0     0     0     0    20  1.365     0     0     0
 2019 230    62    61     0     0     0     0    20  1.365     0     0     0
 2019 231    63    62     0     0     0     0    20  1.365     0     0     0
 2019 232    64    63     0     0     0     0    20  1.365     0     0     0
 2019 233    65    64     0     0     0     0    20  1.365     0     0     0
 2019 234    66    65     0     0     0     0    20  1.365     0     0     0
 2019 235    67    66     0     0     0     0    20  1.365     0     0     0
 2019 236    68    67     0     0     0     0    20  1.365     0     0     0
 2019 237    69    68     0     0     0     0    20  1.365     0     0     0
 2019 238    70    69     0     0     0     0    20  1.365     0     0     0
 2019 239    71    70     0     0     0     0    20  1.365     0     0     0
 2019 240    72    71     0     0     0     0    20  1.365     0     0     0
 2019 241    73    72     0     0     0     0    20  1.365     0     0     0
 2019 242    74    73     0     0     0     0    20  1.365     0     0     0
 2019 243    75    74     0     0     0     0    20  1.365     0     0     0
 2019 244    76    75     0     0     0     0    20  1.365     0     0     0
 2019 245    77    76     0     0     0     0    20  1.365     0     0     0
 2019 246    78    77     0     0     0     0    20  1.365     0     0     0
 2019 247    79    78     0     0     0     0    20  1.365     0     0     0
 2019 248    80    79     0     0     0     0    20  1.365     0     0     0
 2019 249    81    80     0     0     0     0    20  1.365     0     0     0
 2019 250    82    81     0     0     0     0    20  1.365     0     0     0
 2019 251    83    82     0     0     0     0    20  1.365     0     0     0
 2019 252    84    83     0     0     0     0    20  1.365     0     0     0
 2019 253    85    84     0     0     0     0    20  1.365     0     0     0
 2019 254    86    85     0     0     0     0    20  1.365     0     0     0
 2019 255    87    86     0     0     0     0    20  1.365     0     0     0
 2019 256    88    87     0     0     0     0    20  1.365     0     0     0
 2019 257    89    88     0     0     0     0    20  1.365     0     0     0
 2019 258    90    89     0     0     0     0    20  1.365     0     0     0
 2019 259    91    90     0     0     0     0    20  1.365     0     0     0
 2019 260    92    91     0     0     0     0    20  1.365     0     0     0
 2019 261    93    92     0     0     0     0    20  1.365     0     0     0
 2019 262    94    93     0     0     0     0    20  1.365     0     0     0
 2019 263    95    94     0     0     0     0    20  1.365     0     0     0
 2019 264    96    95     0     0     0     0    20  1.365     0     0     0
 2019 265    97    96     0     0     0     0    20  1.365     0     0     0
 2019 266    98    97     0     0     0     0    20  1.365     0     0     0
 2019 267    99    98     0     0     0     0    20  1.365     0     0     0
 2019 268   100    99     0     0     0     0    20  1.365     0     0     0
 2019 269   101   100     0     0     0     0    20  1.365     0     0     0
 2019 270   102   101     0     0     0     0    20  1.365     0     0     0
 2019 271   103   102     0     0     0     0    20  1.365     0     0     0
 2019 272   104   103     0     0     0     0    20  1.365     0     0     0
 2019 273   105   104     0     0     0     0    20  1.365     0     0     0
 2019 274   106   105     0     0     0     0    20  1.365     0     0     0
 2019 275   107   106     0     0     0     0    20  1.365     0     0     0
 2019 276   108   107     0     0     0     0    20  1.365     0     0     0
 2019 277   109   108     0     0     0     0    20  1.365     0     0     0
 2019 278   110   109     0     0     0     0    20  1.365     0     0     0
 2019 279   111   110     0     0     0     0    20  1.365     0     0     0
 2019 280   112   111     0     0     0     0    20  1.365     0     0     0
 2019 281   113   112     0     0     0     0    20  1.365     0     0     0
 2019 282   114   113     0     0     0     0    20  1.365     0     0     0
 2019 283   115   114     0     0     0     0    20  1.365     0     0     0
 2019 284   116   115     0     0     0     0    20  1.365     0     0     0
 2019 285   117   116     0     0     0     0    20  1.365     0     0     0
 2019 286   118   117     0     0     0     0    20  1.365     0     0     0
 2019 287   119   118     0     0     0     0    20  1.365     0     0     0
 2019 288   120   119     0     0     0     0    20  1.365     0     0     0
 2019 289   121   120     0     0     0     0    20  1.365     0     0     0
 2019 290   122   121     0     0     0     0    20  1.365     0     0     0
 2019 291   123   122     0     0     0     0    20  1.365     0     0     0
 2019 292   124   123     0     0     0     0    20  1.365     0     0     0
 2019 293   125   124     0     0     0     0    20  1.365     0     0     0
 2019 294   126   125     0     0     0     0    20  1.365     0     0     0
 2019 295   127   126     0     0     0     0    20  1.365     0     0     0
 2019 296   128   127     0     0     0     0    20  1.365     0     0     0
 2019 297   129   128     0     0     0     0    20  1.365     0     0     0
 2019 298   130   129     0     0     0     0    20  1.365     0     0     0
 2019 299   131   130     0     0     0     0    20  1.365     0     0     0
 2019 300   132   131     0     0     0     0    20  1.365     0     0     0
 2019 301   133   132     0     0     0     0    20  1.365     0     0     0
 2019 302   134   133     0     0     0     0    20  1.365     0     0     0
 2019 303   135   134     0     0     0     0    20  1.365     0     0     0
 2019 304   136   135     0     0     0     0    20  1.365     0     0     0
 2019 305   137   136     0     0     0     0    20  1.365     0     0     0
 2019 306   138   137     0     0     0     0    20  1.365     0     0     0
 2019 307   139   138     0     0     0     0    20  1.365     0     0     0
 2019 308   140   139     0     0     0     0    20  1.365     0     0     0
 2019 309   141   140     0     0     0     0    20  1.365     0     0     0
 2019 310   142   141     0     0     0     0    20  1.365     0     0     0
 2019 311   143   142     0     0     0     0    20  1.365     0     0     0
 2019 312   144   143     0     0     0     0    20  1.365     0     0     0
 2019 313   145   144     0     0     0     0    20  1.365     0     0     0
 2019 314   146   145     0     0     0     0    20  1.365     0     0     0
 2019 315   147   146     0     0     0     0    20  1.365     0     0     0
 2019 316   148   147     0     0     0     0    20  1.365     0     0     0
 2019 317   149   148     0     0     0     0    20  1.365     0     0     0
 2019 318   150   149     0     0     0     0    20  1.365     0     0     0
 2019 319   151   150     0     0     0     0    20  1.365     0     0     0
 2019 320   152   151     0     0     0     0    20  1.365     0     0     0
 2019 321   153   152     0     0     0     0    20  1.365     0     0     0
 2019 322   154   153     0     0     0     0    20  1.365     0     0     0
 2019 323   155   154     1    27     0     0    20  1.365     0     0     0
 2019 324   156   155     1    27     0     0    20  1.365     0     0     0
 2019 325   157   156     1    27     0     0    20  1.365     0     0     0
 2019 326   158   157     1    27     0     0    20  1.365     0     0     0
 2019 327   159   158     1    27     0     0    20  1.365     0     0     0
 2019 328   160   159     1    27     0     0    20  1.365     0     0     0
 2019 329   161   160     1    27     0     0    20  1.365     0     0     0
 2019 330   162   161     1    27     0     0    20  1.365     0     0     0
 2019 331   163   162     1    27     0     0    20  1.365     0     0     0
 2019 332   164   163     1    27     0     0    20  1.365     0     0     0
 2019 333   165   164     2    54     0     0    20  1.365     0     0     0
 2019 334   166   165     2    54     0     0    20  1.365     0     0     0
 2019 335   167   166     2    54     0     0    20  1.365     0     0     0
 2019 336   168   167     2    54     0     0    20  1.365     0     0     0
 2019 337   169   168     2    54     0     0    20  1.365     0     0     0
 2019 338   170   169     2    54     0     0    20  1.365     0     0     0
 2019 339   171   170     2    54     0     0    20  1.365     0     0     0
 2019 340   172   171     2    54     0     0    20  1.365     0     0     0
 2019 341   173   172     3    80     0     0    20  1.365     0     0     0
 2019 342   174   173     3    80     0     0    20  1.365     0     0     0
 2019 343   175   174     3    80     0     0    20  1.365     0     0     0
 2019 344   176   175     3    80     0     0    20  1.365     0     0     0
 2019 345   177   176     3    80     0     0    20  1.365     0     0     0
 2019 346   178   177     3    80     0     0    20  1.365     0     0     0
 2019 347   179   178     3    80     0     0    20  1.365     0     0     0
 2019 348   180   179     4   106     0     0    20  1.365     0     0     0
 2019 349   181   180     4   106     0     0    20  1.365     0     0     0
 2019 350   182   181     4   106     0     0    20  1.365     0     0     0
 2019 351   183   182     4   106     0     0    20  1.365     0     0     0
 2019 352   184   183     4   106     0     0    20  1.365     0     0     0
 2019 353   185   184     4   106     0     0    20  1.365     0     0     0
 2019 354   186   185     4   106     0     0    20  1.365     0     0     0
 2019 355   187   186     5   132     0     0    20  1.365     0     0     0
 2019 356   188   187     5   132     0     0    20  1.365     0     0     0
 2019 357   189   188     5   132     0     0    20  1.365     0     0     0
 2019 358   190   189     5   132     0     0    20  1.365     0     0     0
 2019 359   191   190     5   132     0     0    20  1.365     0     0     0
 2019 360   192   191     5   132     0     0    20  1.365     0     0     0
 2019 361   193   192     5   132     0     0    20  1.365     0     0     0
 2019 362   194   193     6   160     0     0    20  1.365     0     0     0
 2019 363   195   194     6   160     0     0    20  1.365     0     0     0
 2019 364   196   195     6   160     0     0    20  1.365     0     0     0
 2019 365   197   196     6   160     0     0    20  1.365     0     0     0
 2020 001   198   197     6   160     0     0    20  1.365     0     0     0
 2020 002   199   198     6   160     0     0    20  1.365     0     0     0
 2020 003   200   199     6   160     0     0    20  1.365     0     0     0
 2020 004   201   200     7   186     0     0    20  1.365     0     0     0
 2020 005   202   201     7   186     0     0    20  1.365     0     0     0
 2020 006   203   202     7   186     0     0    20  1.365     0     0     0
 2020 007   204   203     7   186     0     0    20  1.365     0     0     0
 2020 008   205   204     7   186     0     0    20  1.365     0     0     0
 2020 009   206   205     7   186     0     0    20  1.365     0     0     0
 2020 010   207   206     7   186     0     0    20  1.365     0     0     0
 2020 011   208   207     7   186     0     0    20  1.365     0     0     0
 2020 012   209   208     8   214     0     0    20  1.365     0     0     0
 2020 013   210   209     8   214     0     0    20  1.365     0     0     0
 2020 014   211   210     8   214     0     0    20  1.365     0     0     0
 2020 015   212   211     8   214     0     0    20  1.365     0     0     0
 2020 016   213   212     8   214     0     0    20  1.365     0     0     0
 2020 017   214   213     8   214     0     0    20  1.365     0     0     0
 2020 018   215   214     8   214     0     0    20  1.365     0     0     0
 2020 019   216   215     8   214     0     0    20  1.365     0     0     0
 2020 020   217   216     8   214     0     0    20  1.365     0     0     0
 2020 021   218   217     9   242     0     0    20  1.365     0     0     0
 2020 022   219   218     9   242     0     0    20  1.365     0     0     0
 2020 023   220   219     9   242     0     0    20  1.365     0     0     0
 2020 024   221   220     9   242     0     0    20  1.365     0     0     0
 2020 025   222   221     9   242     0     0    20  1.365     0     0     0
 2020 026   223   222     9   242     0     0    20  1.365     0     0     0
 2020 027   224   223     9   242     0     0    20  1.365     0     0     0
 2020 028   225   224     9   242     0     0    20  1.365     0     0     0
 2020 029   226   225    10   270     0     0    20  1.365     0     0     0
 2020 030   227   226    10   270     0     0    20  1.365     0     0     0
 2020 031   228   227    10   270     0     0    20  1.365     0     0     0
 2020 032   229   228    10   270     0     0    20  1.365     0     0     0
 2020 033   230   229    10   270     0     0    20  1.365     0     0     0
 2020 034   231   230    10   270     0     0    20  1.365     0     0     0
 2020 035   232   231    10   270     0     0    20  1.365     0     0     0
 2020 036   233   232    10   270     0     0    20  1.365     0     0     0
 2020 037   234   233    10   270     0     0    20  1.365     0     0     0
 2020 038   235   234    11   297     0     0    20  1.365     0     0     0
 2020 039   236   235    11   297     0     0    20  1.365     0     0     0
 2020 040   237   236    11   297     0     0    20  1.365     0     0     0
 2020 041   238   237    11   297     0     0    20  1.365     0     0     0
 2020 042   239   238    11   297     0     0    20  1.365     0     0     0
 2020 043   240   239    11   297     0     0    20  1.365     0     0     0
 2020 044   241   240    11   297     0     0    20  1.365     0     0     0
 2020 045   242   241    11   297     0     0    20  1.365     0     0     0
 2020 046   243   242    11   297     0     0    20  1.365     0     0     0
 2020 047   244   243    12   322     0     0    20  1.365     0     0     0
 2020 048   245   244    12   322     0     0    20  1.365     0     0     0
 2020 049   246   245    12   322     0     0    20  1.365     0     0     0
 2020 050   247   246    12   322     0     0    20  1.365     0     0     0
 2020 051   248   247    12   322     0     0    20  1.365     0     0     0
 2020 052   249   248    12   322     0     0    20  1.365     0     0     0
 2020 053   250   249    12   322     0     0    20  1.365     0     0     0
 2020 054   251   250    12   322     0     0    20  1.365     0     0     0
 2020 055   252   251    12   322     0     0    20  1.365     0     0     0
 2020 056   253   252    13   349     0     0    20  1.365     0     0     0
 2020 057   254   253    13   349     0     0    20  1.365     0     0     0
 2020 058   255   254    13   349     0     0    20  1.365     0     0     0
 2020 059   256   255    13   349     0     0    20  1.365     0     0     0
 2020 060   257   256    13   349     0     0    20  1.365     0     0     0
 2020 061   258   257    13   349     0     0    20  1.365     0     0     0
 2020 062   259   258    13   349     0     0    20  1.365     0     0     0
 2020 063   260   259    13   349     0     0    20  1.365     0     0     0
 2020 064   261   260    13   349     0     0    20  1.365     0     0     0
 2020 065   262   261    13   349     0     0    20  1.365     0     0     0
 2020 066   263   262    14   376     0     0    20  1.365     0     0     0
 2020 067   264   263    14   376     0     0    20  1.365     0     0     0
 2020 068   265   264    14   376     0     0    20  1.365     0     0     0
 2020 069   266   265    14   376     0     0    20  1.365     0     0     0
 2020 070   267   266    14   376     0     0    20  1.365     0     0     0
 2020 071   268   267    14   376     0     0    20  1.365     0     0     0
 2020 072   269   268    14   376     0     0    20  1.365     0     0     0
 2020 073   270   269    14   376     0     0    20  1.365     0     0     0
 2020 074   271   270    14   376     0     0    20  1.365     0     0     0
 2020 075   272   271    14   376     0     0    20  1.365     0     0     0
 2020 076   273   272    15   403     0     0    20  1.365     0     0     0
 2020 077   274   273    15   403     0     0    20  1.365     0     0     0
 2020 078   275   274    15   403     0     0    20  1.365     0     0     0
 2020 079   276   275    15   403     0     0    20  1.365     0     0     0
 2020 080   277   276    15   403     0     0    20  1.365     0     0     0
 2020 081   278   277    15   403     0     0    20  1.365     0     0     0
 2020 082   279   278    15   403     0     0    20  1.365     0     0     0
 2020 083   280   279    15   403     0     0    20  1.365     0     0     0
 2020 084   281   280    15   403     0     0    20  1.365     0     0     0
 2020 085   282   281    15   403     0     0    20  1.365     0     0     0
 2020 086   283   282    15   403     0     0    20  1.365     0     0     0
 2020 087   284   283    15   403     0     0    20  1.365     0     0     0
 2020 088   285   284    15   403     0     0    20  1.365     0     0     0
 2020 089   286   285    16   430     0     0    20  1.365     0     0     0
 2020 090   287   286    16   430     0     0    20  1.365     0     0     0
 2020 091   288   287    16   430     0     0    20  1.365     0     0     0
 2020 092   289   288    16   430     0     0    20  1.365     0     0     0
 2020 093   290   289    16   430     0     0    20  1.365     0     0     0
 2020 094   291   290    16   430     0     0    20  1.365     0     0     0
 2020 095   292   291    16   430     0     0    20  1.365     0     0     0
 2020 096   293   292    16   430     0     0    20  1.365     0     0     0
 2020 097   294   293    16   430     0     0    20  1.365     0     0     0
 2020 098   295   294    16   430     0     0    20  1.365     0     0     0
 2020 099   296   295    16   430     0     0    20  1.365     0     0     0
 2020 100   297   296    16   430     0     0    20  1.365     0     0     0
 2020 101   298   297    17   455     0     0    20  1.365     0     0     0
 2020 102   299   298    17   455     0     0    20  1.365     0     0     0
 2020 103   300   299    17   455     0     0    20  1.365     0     0     0
 2020 104   301   300    17   455     0     0    20  1.365     0     0     0
 2020 105   302   301    17   455     0     0    20  1.365     0     0     0
 2020 106   303   302    17   455     0     0    20  1.365     0     0     0
 2020 107   304   303    17   455     0     0    20  1.365     0     0     0
 2020 108   305   304    17   455     0     0    20  1.365     0     0     0
 2020 109   306   305    17   455     0     0    20  1.365     0     0     0
 2020 110   307   306    17   455     0     0    20  1.365     0     0     0
 2020 111   308   307    18   481     0     0    20  1.365     0     0     0
 2020 112   309   308    18   481     0     0    20  1.365     0     0     0
 2020 113   310   309    18   481     0     0    20  1.365     0     0     0
 2020 114   311   310    18   481     0     0    20  1.365     0     0     0
 2020 115   312   311    18   481     0     0    20  1.365     0     0     0
 2020 116   313   312    18   481     0     0    20  1.365     0     0     0
 2020 117   314   313    18   481     0     0    20  1.365     0     0     0
 2020 118   315   314    18   481     0     0    20  1.365     0     0     0
 2020 119   316   315    18   481     0     0    20  1.365     0     0     0
 2020 120   317   316    18   481     0     0    20  1.365     0     0     0
 2020 121   318   317    18   481     0     0    20  1.365     0     0     0
 2020 122   319   318    18   481     0     0    20  1.365     0     0     0
 2020 123   320   319    18   481     0     0    20  1.365     0     0     0
 2020 124   321   320    18   481     0     0    20  1.365     0     0     0
 2020 125   322   321    18   481     0     0    20  1.365     0     0     0
 2020 126   323   322    18   481     0     0    20  1.365     0     0     0
 2020 127   324   323    18   481     0     0    20  1.365     0     0     0
 2020 128   325   324    18   481     0     0    20  1.365     0     0     0
 2020 129   326   325    18   481     0     0    20  1.365     0     0     0
 2020 130   327   326    18   481     0     0    20  1.365     0     0     0
 2020 131   328   327    18   481     0     0    20  1.365     0     0     0
 2020 132   329   328    18   481     0     0    20  1.365     0     0     0
 2020 133   330   329    18   481     0     0    20  1.365     0     0     0
 2020 134   331   330    18   481     0     0    20  1.365     0     0     0
 2020 135   332   331    18   481     0     0    20  1.365     0     0     0
 2020 136   333   332    18   481     0     0    20  1.365     0     0     0
 2020 137   334   333    18   481     0     0    20  1.365     0     0     0
 2020 138   335   334    18   481     0     0    20  1.365     0     0     0
 2020 139   336   335    18   481     0     0    20  1.365     0     0     0
 2020 140   337   336    18   481     0     0    20  1.365     0     0     0
 2020 141   338   337    19   508     0     0    20  1.365     0     0     0
 2020 142   339   338    19   508     0     0    20  1.365     0     0     0
 2020 143   340   339    19   508     0     0    20  1.365     0     0     0
 2020 144   341   340    19   508     0     0    20  1.365     0     0     0
 2020 145   342   341    19   508     0     0    20  1.365     0     0     0
 2020 146   343   342    19   508     0     0    20  1.365     0     0     0
 2020 147   344   343    19   508     0     0    20  1.365     0     0     0
 2020 148   345   344    19   508     0     0    20  1.365     0     0     0
 2020 149   346   345    19   508     0     0    20  1.365     0     0     0
 2020 150   347   346    19   508     0     0    20  1.365     0     0     0
 2020 151   348   347    19   508     0     0    20  1.365     0     0     0
 2020 152   349   348    19   508     0     0    20  1.365     0     0     0
 2020 153   350   349    19   508     0     0    20  1.365     0     0     0
 2020 154   351   350    19   508     0     0    20  1.365     0     0     0
 2020 155   352   351    19   508     0     0    20  1.365     0     0     0
 2020 156   353   352    19   508     0     0    20  1.365     0     0     0
 2020 157   354   353    19   508     0     0    20  1.365     0     0     0
 2020 158   355   354    19   508     0     0    20  1.365     0     0     0
 2020 159   356   355    19   508     0     0    20  1.365     0     0     0
 2020 160   357   356    19   508     0     0    20  1.365     0     0     0
 2020 161   358   357    19   508     0     0    20  1.365     0     0     0
 2020 162   359   358    19   508     0     0    20  1.365     0     0     0
 2020 163   360   359    19   508     0     0    20  1.365     0     0     0
 2020 164   361   360    19   508     0     0    20  1.365     0     0     0
 2020 165   362   361    19   508     0     0    20  1.365     0     0     0
 2020 166   363   362    19   508     0     0    20  1.365     0     0     0
 2020 167   364   363    19   508     0     0    20  1.365     0     0     0
 2020 168   365   364    19   508     0     0    20  1.365     0     0     0
 2020 169   366   365    19   508     0     0    20  1.365     0     0     0
 2020 170   367   366    19   508     0     0    20  1.365     0     0     0
 2020 171   368   367    19   508     0     0    20  1.365     0     0     0
 2020 172   369   368    19   508     0     0    20  1.365     0     0     0
 2020 173   370   369    19   508     0     0    20  1.365     0     0     0
 2020 174   371   370    19   508     0     0    20  1.365     0     0     0
 2020 175   372   371    19   508     0     0    20  1.365     0     0     0
 2020 176   373   372    19   508     0     0    20  1.365     0     0     0
 2020 177   374   373    19   508     0     0    20  1.365     0     0     0
 2020 178   375   374    19   508     0     0    20  1.365     0     0     0
 2020 179   376   375    19   508     0     0    20  1.365     0     0     0
 2020 180   377   376    19   508     0     0    20  1.365     0     0     0
 2020 181   378   377    19   508     0     0    20  1.365     0     0     0
 2020 182   379   378    19   508     0     0    20  1.365     0     0     0
 2020 183   380   379    19   508     0     0    20  1.365     0     0     0
 2020 184   381   380    19   508     0     0    20  1.365     0     0     0
 2020 185   382   381    19   508     0     0    20  1.365     0     0     0
 2020 186   383   382    19   508     0     0    20  1.365     0     0     0
 2020 187   384   383    19   508     0     0    20  1.365     0     0     0
 2020 188   385   384    19   508     0     0    20  1.365     0     0     0
 2020 189   386   385    19   508     0     0    20  1.365     0     0     0
 2020 190   387   386    19   508     0     0    20  1.365     0     0     0
 2020 191   388   387    19   508     0     0    20  1.365     0     0     0
 2020 192   389   388    19   508     0     0    20  1.365     0     0     0
 2020 193   390   389    19   508     0     0    20  1.365     0     0     0
 2020 194   391   390    19   508     0     0    20  1.365     0     0     0
 2020 195   392   391    19   508     0     0    20  1.365     0     0     0
 2020 196   393   392    19   508     0     0    20  1.365     0     0     0
 2020 197   394   393    19   508     0     0    20  1.365     0     0     0
 2020 198   395   394    19   508     0     0    20  1.365     0     0     0
 2020 199   396   395    19   508     0     0    20  1.365     0     0     0
 2020 200   397   396    19   508     0     0    20  1.365     0     0     0
 2020 201   398   397    19   508     0     0    20  1.365     0     0     0
 2020 202   399   398    19   508     0     0    20  1.365     0     0     0
 2020 203   400   399    19   508     0     0    20  1.365     0     0     0
 2020 204   401   400    19   508     0     0    20  1.365     0     0     0
 2020 205   402   401    19   508     0     0    20  1.365     0     0     0
 2020 206   403   402    19   508     0     0    20  1.365     0     0     0
 2020 207   404   403    19   508     0     0    20  1.365     0     0     0
 2020 208   405   404    19   508     0     0    20  1.365     0     0     0
 2020 209   406   405    19   508     0     0    20  1.365     0     0     0
