$GROWTH ASPECTS OUTPUT FILE

*DSSAT Cropping System Model Ver. 4.8.0.010 -develop  AUG 03, 2021 18:13:11

*RUN   1        : IITA-TMS-IBA000070        CSYCA048 UYAB1901    1
 MODEL          : CSYCA048 - Cassava
 EXPERIMENT     : UYAB1901 CS UYT_GXE
 DATA PATH      : C:\DSSAT48\CASSAVA\
 TREATMENT  1   : IITA-TMS-IBA000070        CSYCA048
  
@YEAR DOY   DAS   DAP TMEAN  GSTD  L#SD PARID PARUD  AWAD  LAID  SAID  CAID  TWAD SDWAD  RWAD  CWAD  LWAD  SWAD  HWAD  HIAD RSWAD SNWLD SNWSD  RS%D  S#AD  SLAD  RDPD  SWXD WAVRD WUPRD  WFPD  WFGD  NFPD  NFGD NUPRD  TFPD  TFGD DYLFD            
 2019 169     0     0  28.9     0   0.0 0.000  0.00   0.0     0 0.000     0   450   450     0   450     0     0     0 0.000     0     0     0  0.00  0.00 -99.0  0.20  26.5  99.9  1.00  0.00  0.00  0.00  0.00   0.0  0.00  0.00  0.00
 2019 170     1     1  29.0     0   0.0 0.000  0.00   0.0     0 0.000     0   450   450     0   450     0     0     0 0.000     0     0     0  0.00  0.00 -99.0  0.20  31.1  99.9  1.00  0.00  0.00  0.00  0.00   0.0  0.00  0.00  0.00
 2019 171     2     2  26.7     0   0.0 0.000  0.00   0.0     0 0.000     0   450   450     0   450     0     0     0 0.000     0     0     0  0.00  0.00 -99.0  0.20  28.0  99.9  1.00  0.00  0.00  0.00  0.00   0.0  0.00  0.00  0.00
 2019 172     3     3  27.7     0   0.0 0.000  0.00   0.0     0 0.000     0   450   450     0   450     0     0     0 0.000     0     0     0  0.00  0.00 -99.0  0.20  25.2  99.9  1.00  0.00  0.00  0.00  0.00   0.0  0.00  0.00  0.00
 2019 173     4     4  25.8     0   0.0 0.000  0.00   0.0     0 0.000     0   450   450     0   450     0     0     0 0.000     0     0     0  0.00  0.00 -99.0  0.20  28.1  99.9  1.00  0.00  0.00  0.00  0.00   0.0  0.00  0.00  0.00
 2019 174     5     5  27.6     0   0.0 0.000  0.00   0.0     0 0.000     0   450   450     0   450     0     0     0 0.000     0     0     0  0.00  0.00 -99.0  0.20  25.9  99.9  1.00  0.00  0.00  0.00  0.00   0.0  0.00  0.00  0.00
 2019 175     6     6  24.4     0   0.0 0.000  0.00   0.0     0 0.000     0   450   450     0   450     0     0     0 0.000     0     0     0  0.00  0.00 -99.0  0.20  32.9  99.9  1.00  0.00  0.00  0.00  0.00   0.0  0.00  0.00  0.00
 2019 176     7     7  26.4     0   0.0 0.000  0.00   0.0     0 0.000     0   450   450     0   450     0     0     0 0.000     0     0     0  0.00  0.00 -99.0  0.20  27.4  99.9  1.00  0.00  0.00  0.00  0.00   0.0  0.00  0.00  0.00
 2019 177     8     8  25.0     0   0.0 0.000  0.00   0.0     0 0.000     0   443   443     0   443     0     0     0 0.000     0     0     0  0.00  1.00 -99.0  0.21  27.5  99.9  1.00  0.00  0.00  0.00  0.00   0.0  0.00  0.00  0.00
 2019 178     9     9  25.0 .0179   0.0 0.000  0.00   0.0     0 0.000     0   443   443     0   443     0     0     0 0.000     0     0     0  0.00  1.00 -99.0  0.22  27.8  99.9  1.00  0.00  0.00  0.00  0.00   0.0  0.00  0.00  0.00
 2019 179    10    10  26.4 .0357   1.2 0.000  0.00   0.0     0 0.000     0   443   443     0   443     0     0     0 0.000     0     0     0  0.00  1.00 -99.0  0.24  28.1  99.9  1.00  0.00  0.00  0.00  0.00   0.0  0.00  0.00  0.00
 2019 180    11    11  27.3 .0522   2.5 0.000  0.00   0.0     0 0.000     0   443   443     0   443     0     0     0 0.000     0     0     0  0.00  1.00 -99.0  0.25  28.5  99.9  1.00  0.00  0.00  0.00  0.00   0.0  0.00  0.00  0.00
 2019 181    12    12  27.4 .0677   3.8 0.000  0.00   0.0     0 0.000 .0004   444   439     1   442     3     0     1 0.001     0     0     0  0.00  1.00 188.3  0.26  36.2  99.9  1.00  0.00  0.00  0.00  0.00   0.0  0.00  0.00  0.00
 2019 182    13    13  25.8 .0831   4.9 0.003  0.00   0.0 .0033 0.001 .0044   445   432     2   440     7     1     2 0.002     0     0 .0071  0.02  1.00 183.9  0.27  38.5  99.9  1.00  0.00  0.00  0.00  0.00   0.0  0.00  0.00  0.00
 2019 183    14    14  26.5 0.100   6.1 0.008  2.68   0.7 .0091 0.002 .0112   447   423     4   440    14     3     4 0.004     0     0 .0239  0.05  1.00 184.1  0.29  36.6  99.9  1.00  0.00  0.00  0.00  0.00   0.0  0.00  0.00  0.00
 2019 184    15    15  26.8 0.117   7.3 0.015  2.61   1.8 .0176 0.003 .0208   451   414     5   441    22     5     5 0.006     0     0 .0522  0.08  1.00 184.7  0.30  39.1  99.9  1.00  0.00  0.00  0.00  0.00   0.0  0.00  0.00  0.00
 2019 185    16    16  26.8 0.133   8.5 0.023  2.57   3.2 .0268 0.005 .0318   457   401     7   443    33     8     7 0.009     1     0 .0923  0.12  1.00 185.1  0.31  51.4  99.9  1.00  0.00  0.00  0.00  0.00   0.0  0.00  0.00  0.00
 2019 186    17    17  25.7 0.149   9.6 0.036  2.86   5.8 .0414 0.007 .0486   466   387    10   447    48    12    10 0.012     1     0 0.148  0.16  1.00 183.9  0.33  53.3  99.9  1.00  0.00  0.00  0.00  0.00   0.0  0.00  0.00  0.00
 2019 187    18    18  27.2 0.166  10.8 0.051  2.57   8.0 .0590 0.010 .0686   478   374    12   454    64    16    12 0.015     1     0 0.222  0.21  1.00 184.8  0.34  50.0  99.9  1.00  0.00  0.00  0.00  0.00   0.0  0.00  0.00  0.00
 2019 188    19    19  27.2 0.181  12.1 0.068  2.66  10.7 .0797 0.012 .0919   493   361    15   463    82    20    15 0.019     1     0 0.318  0.27  1.00 185.5  0.35  56.4  99.9  1.00  0.00  0.00  0.00  0.00   0.0  0.00  0.00  0.00
 2019 189    20    20  23.8 0.197  13.0 0.086  3.00  16.7 0.102 0.015 0.116   514   355    18   479    99    25    18 0.022     2     0 0.431  0.32  1.00 183.3  0.36  54.8  99.9  1.00  0.00  0.00  0.00  0.00   0.0  0.08  0.01  0.00
 2019 190    21    21  26.4 0.215  14.1 0.101  2.73  19.4 0.122 0.018 0.140   540   345    21   497   121    31    22 0.026     2     0 0.562  0.36  1.00 183.4  0.37  52.0  99.9  1.00  0.00  0.00  0.00  0.00   0.0  0.00  0.00  0.00
 2019 191    22    22  26.0 0.231  15.2 0.120  2.76  24.8 0.146 0.021 0.166   570   344    24   521   139    37    25 0.029     2     0 0.718  0.41  1.00 183.3  0.38  50.5  99.9  1.00  0.00  0.00  0.00  0.00   0.0  0.00  0.00  0.00
 2019 192    23    23  24.4 0.248  16.1 0.140  3.00  27.8 0.171 0.024 0.195   601   339    27   546   162    44    28 0.033     2     0 0.889  0.45  1.00 182.2  0.39  51.0  99.9  1.00  0.00  0.00  0.00  0.00   0.0  0.04  0.00  0.00
 2019 193    24    24  25.5 0.266  17.2 0.160  2.84  32.1 0.198 0.027 0.225   640   343    31   578   183    52    32 0.035     3     0 1.080  0.49  1.00 181.9  0.41  65.4  99.9  1.00  0.00  0.00  0.00  0.00   0.0  0.00  0.00  0.00
 2019 194    25    25  26.5 0.283  18.3 0.178  2.44  35.3 0.223 0.030 0.253   683   349    34   613   203    60    36 0.038     3     0 1.303  0.52  1.00 182.2  0.41  56.4  86.9  1.00  0.00  0.00  0.00  0.00   0.0  0.00  0.00  0.00
 2019 195    26    26  26.0 0.300  19.3 0.196  2.63  41.2 0.248 0.033 0.282   729   356    37   650   225    69    42 0.042     4     0 1.551  0.56  1.00 182.2  0.42  68.9  99.7  1.00  0.00  0.00  0.00  0.00   0.0  0.00  0.00  0.00
 2019 196    27    27  26.2 0.317  20.4 0.215  2.67  44.6 0.275 0.037 0.312   779   362    41   688   248    78    50 0.048     4     0 1.826  0.61  1.00 182.3  0.43  70.5  94.5  1.00  0.00  0.00  0.00  0.00   0.0  0.00  0.00  0.00
 2019 197    28    28  27.5 0.333  21.6 0.234  2.09  40.3 0.303 0.041 0.344   826   367    45   727   273    87    54 0.050     5     0 2.143  0.69  1.00 182.9  0.44  65.5  74.1  1.00  0.00  0.00  0.00  0.00   0.0  0.00  0.00  0.00
 2019 198    29    29  27.4 0.349  22.7 0.255  2.09  45.7 0.335 0.044 0.379   878   373    48   765   295    98    65 0.057     5     0 2.503  0.71  1.00 183.3  0.45  62.5  62.8  1.00  0.00  0.00  0.00  0.00   0.0  0.00  0.00  0.00
 2019 199    30    30  26.5 0.364  23.8 0.273  2.89  56.5 0.362 0.048 0.410   936   379    52   808   321   108    76 0.064     6     0 2.889  0.80  1.00 183.4  0.46  58.9  68.0  1.00  0.00  0.00  0.00  0.00   0.0  0.00  0.00  0.00
 2019 200    31    31  24.8 0.380  24.7 0.293  2.80  61.1 0.394 0.051 0.445  1004   385    56   850   345   119    99 0.078     8     0 3.297  0.90  1.00 183.0  0.47  69.1  73.7  1.00  0.00  0.00  0.00  0.00   0.0  0.02  0.00  0.00
 2019 201    32    32  26.0 0.398  25.7 0.311  2.50  67.5 0.423 0.055 0.478  1083   391    60   892   370   131   131 0.098    10     0 3.737  1.11  1.00 182.9  0.48  66.9  56.0  1.00  0.00  0.00  0.00  0.00   0.0  0.00  0.00  0.00
 2019 202    33    33  26.4 0.415  26.8 0.329  2.46  70.2 0.453 0.059 0.512  1158   397    63   935   395   143   160 0.113    13     0 4.198  1.40  1.00 183.0  0.49  63.1  49.6  1.00  0.00  0.00  0.00  0.00   0.0  0.00  0.00  0.00
 2019 203    34    34  25.7 0.431  27.7 0.347  2.74  73.4 0.484 0.063 0.547  1234   403    67   980   421   155   187 0.125    16     0 4.673  1.63  1.00 182.9  0.50  63.5  54.1  1.00  0.00  0.00  0.00  0.00   0.0  0.00  0.00  0.00
 2019 204    35    35  26.8 0.449  28.8 0.365  2.55  77.4 0.516 0.067 0.583  1320   409    71  1025   448   168   224 0.142    19     0 5.184  1.82  1.00 183.1  0.51  62.6  46.1  1.00  0.00  0.00  0.00  0.00   0.0  0.00  0.00  0.00
 2019 205    36    36  27.7 0.465  29.9 0.383  2.29  67.7 0.549 0.070 0.620  1391   415    75  1071   475   182   244 0.148    22     0 5.746  2.09  1.00 183.4  0.52  61.4  45.9  1.00  0.00  0.00  0.00  0.00   0.0  0.00  0.00  0.00
 2019 206    37    37  24.8 0.480  30.8 0.401  3.14  96.4 0.583 0.075 0.658  1493   421    80  1121   504   196   292 0.167    24     0 6.325  2.18  1.00 183.1  0.53  66.8  51.2  1.00  0.00  0.00  0.00  0.00   0.0  0.01  0.00  0.00
 2019 207    38    38  25.8 0.498  31.8 0.420  2.83  84.5 0.619 0.079 0.698  1581   427    84  1170   534   210   326 0.177    29     0 6.926  2.50  1.00 183.0  0.54  65.2  49.7  1.00  0.00  0.00  0.00  0.00   0.0  0.00  0.00  0.00
 2019 208    39    39  25.9 0.515  32.7 0.438  2.76  91.1 0.654 0.084 0.738  1680   433    89  1221   563   225   371 0.191    33     0 7.558  2.67  1.00 182.9  0.55  63.4  43.9  1.00  0.00  0.00  0.00  0.00   0.0  0.00  0.00  0.00
 2019 209    40    40  26.1 0.532  33.7 0.455  3.05 110.1 0.690 0.088 0.779  1799   438    93  1272   594   240   434 0.211    37     0 8.210  2.92  1.00 182.9  0.56  61.7  39.1  1.00  0.00  0.00  0.00  0.00   0.0  0.00  0.00  0.00
 2019 210    41    41  26.2 0.548  34.7 0.473  2.70  97.2 0.727 0.093 0.820  1901   444    98  1324   624   256   479 0.222    43     0 8.879  3.28  1.00 182.9  0.57  60.1  38.0  1.00  0.00  0.00  0.00  0.00   0.0  0.00  0.00  0.00
 2019 211    42    42  26.5 0.564  35.6 0.490  2.43  86.7 0.765 0.097 0.862  1992   450   102  1377   655   272   512 0.228    48     0 9.605  3.48  1.00 183.0  0.58  58.7  37.3  1.00  0.00  0.05  0.00  0.00   0.0  0.00  0.00  0.00
 2019 212    43    43  26.2 0.579  36.5 0.507  2.87 112.5 0.803 0.102 0.905  2113   456   107  1431   687   289   575 0.243    51     0 10.37  3.58  1.00 183.0  0.59  57.2  33.4  1.00  0.00  0.11  0.00  0.00   0.0  0.00  0.00  0.00
 2019 213    44    44  25.8 0.592  37.2 0.523  2.78 118.4 0.842 0.107 0.949  2241   461   111  1485   718   306   645 0.258    58     0 11.17  3.88  1.00 183.0  0.60  62.9  34.1  1.00  0.00  0.17  0.00  0.00   0.0  0.00  0.00  0.00
 2019 214    45    45  25.1 0.609  38.1 0.539  2.90 120.8 0.880 0.111     1  2365   467   116  1540   749   323   709 0.270    64     0 12.00  4.19  1.00 182.8  0.61  67.0  37.3  1.00  0.00  0.02  0.00  0.00   0.0  0.00  0.00  0.00
 2019 215    46    46  25.8 0.627  39.0 0.554  2.79 116.5 0.918 0.116 1.034  2486   472   121  1594   781   341   771 0.281    71     0 12.87  4.45  1.00 182.7  0.62  64.7  35.2  1.00  0.00  0.00  0.00  0.00   0.0  0.00  0.00  0.00
 2019 216    47    47  26.0 0.644  39.9 0.569  2.67 126.3 0.956 0.121 1.076  2625   478   125  1650   812   360   850 0.295    77     0 13.76  4.67  1.00 182.7  0.63  62.4  29.9  1.00  0.00  0.00  0.00  0.00   0.0  0.00  0.00  0.00
 2019 217    48    48  25.8 0.659  40.8 0.583  2.92 135.5     1 0.126 1.120  2764   484   131  1711   849   379   923 0.305    85     0 14.68  4.97  1.00 182.7  0.63  77.0  38.0  1.00  0.00  0.08  0.00  0.00   0.0  0.00  0.00  0.00
 2019 218    49    49  25.8 0.677  41.7 0.597  2.80 129.6 1.033 0.131 1.164  2899   489   135  1767   881   397   996 0.315    92     0 15.63  5.22  1.00 182.6  0.64  82.3  40.3  1.00  0.00  0.00  0.00  0.00   0.0  0.00  0.00  0.00
 2019 219    50    50  24.2 0.694  42.5 0.613  3.20 147.1 1.078 0.136 1.213  3050   495   140  1825   914   417  1085 0.328   100     0 16.60  5.46  1.00 182.3  0.65  87.1  44.7  1.00  0.00  0.00  0.00  0.00   0.0  0.06  0.00  0.00
 2019 220    51    51  24.7 0.711  43.3 0.625  3.17 153.2 1.116 0.140 1.256  3212   500   145  1882   945   436  1185 0.342   109     0 17.58  5.77  1.00 182.1  0.66  85.0  40.8  1.00  0.00  0.00  0.00  0.00   0.0  0.02  0.00  0.00
 2019 221    52    52  25.6 0.729  44.2 0.638  2.98 155.6 1.154 0.146 1.299  3378   505   150  1942   981   456  1286 0.354   119     0 18.57  6.10  1.00 182.1  0.67  83.0  36.3  1.00  0.00  0.00  0.00  0.00   0.0  0.00  0.00  0.00
 2019 222    53    53  26.4 0.746  45.1 0.651  2.57 140.4 1.196 0.151 1.347  3527   511   155  2003  1016   477  1369 0.362   129     0 19.61  6.42  1.00 182.2  0.68  80.1  33.1  1.00  0.00  0.00  0.00  0.00   0.0  0.00  0.00  0.00
 2019 223    54    54  26.5 0.763  46.0 0.664  2.62 135.4 1.239 0.156 1.395  3664   516   160  2064  1051   498  1440 0.367   137     0 20.70  6.63  1.00 182.2  0.69  83.7  36.4  1.00  0.00  0.00  0.00  0.00   0.0  0.00  0.00  0.00
 2019 224    55    55  24.9 0.779  46.8 0.677  2.92 161.1 1.283 0.162 1.444  3835   521   165  2128  1088   519  1542 0.377   144     0 21.85  6.77  1.00 182.1  0.70  81.7  34.3  1.00  0.00  0.00  0.00  0.00   0.0  0.01  0.00  0.00
 2019 225    56    56  26.2 0.797  47.7 0.689  2.50 144.4 1.327 0.167 1.494  3988   527   170  2191  1124   541  1627 0.383   154     0 23.08  7.04  1.00 182.1  0.71  80.3  31.2  1.00  0.00  0.00  0.00  0.00   0.0  0.00  0.00  0.00
 2019 226    57    57  26.5 0.814  48.6 0.699  2.74 164.2 1.366 0.172 1.538  4160   532   175  2253  1159   562  1732 0.392   163     0 24.37  7.22  1.00 182.2  0.72  77.2  28.9  1.00  0.00  0.00  0.00  0.00   0.0  0.00  0.00  0.00
 2019 227    58    58  25.3 0.830  49.4 0.712  2.68 158.6 1.415 0.177 1.592  4322   537   180  2316  1195   584  1826 0.399   173     0 25.68  7.48  1.00 182.1  0.72  76.1  29.6  1.00  0.00  0.00  0.00  0.00   0.0  0.00  0.00  0.00
 2019 228    59    59  25.3 0.848  50.3 0.723  2.78 161.2 1.458 0.183 1.641  4487   542   185  2379  1230   607  1923 0.405   183     0 27.02  7.67  1.00 182.0  0.73  74.7  29.5  1.00  0.00  0.00  0.00  0.00   0.0  0.00  0.00  0.00
 2019 229    60    60  26.4 0.865  51.1 0.733  2.57 156.7 1.501 0.189 1.689  4653   548   190  2447  1270   629  2016 0.410   192     0 28.42  7.86  1.00 182.1  0.74  71.7  26.3  1.00  0.00  0.00  0.00  0.00   0.0  0.00  0.00  0.00
 2019 230    61    61  25.7 0.880  51.9 0.744  2.74 166.6 1.549 0.195 1.744  4825   553   196  2515  1310   653  2114 0.416   202     0 29.86  8.02  1.00 182.1  0.75  91.9  34.4  1.00  0.00  0.08  0.00  0.00   0.0  0.00  0.00  0.00
 2019 231    62    62  25.3 0.897  52.7 0.755  2.87 170.9 1.598 0.201 1.799  5000   558   202  2590  1356   676  2208 0.420   211     0 31.31  8.16  1.00 182.0  0.76  90.6  34.8  1.00  0.00  0.00  0.00  0.00   0.0  0.00  0.00  0.00
 2019 232    63    63  26.8 0.915  53.6 0.765  2.51 159.4 1.647 0.207 1.854  5170   563   207  2657  1395   700  2306 0.425   221     0 32.83  8.31  1.00 182.1  0.77  87.7  30.7  1.00  0.00  0.00  0.00  0.00   0.0  0.00  0.00  0.00
 2019 233    64    64  26.4 0.931  54.5 0.776  2.62 160.4 1.701 0.212 1.913  5333   568   212  2719  1427   724  2402 0.430   231     0 34.41  8.48  1.00 182.1  0.78 105.0  38.4  1.00  0.00  0.00  0.00  0.00   0.0  0.00  0.00  0.00
 2019 234    65    65  25.8 0.947  55.3 0.784  2.57 174.5 1.742 0.218 1.960  5521   573   217  2787  1466   748  2518 0.436   240     0 36.01  8.62  1.00 182.1  0.79 103.5  34.3  1.00  0.00  0.00  0.00  0.00   0.0  0.00  0.00  0.00
 2019 235    66    66  25.6 0.964  56.1 0.793  2.82 163.6 1.789 0.223 2.012  5677   578   222  2854  1504   772  2601 0.438   252     0 37.65  8.82  1.00 182.1  0.80 119.4  46.7  1.00  0.00  0.00  0.00  0.00   0.0  0.00  0.00  0.00
 2019 236    67    67  25.5 0.982  56.9 0.801  2.68 167.0 1.835 0.229 2.064  5855   583   227  2922  1542   797  2706 0.443   260     0 39.33  8.90  1.00 182.0  0.81 116.6  42.4  1.00  0.00  0.00  0.00  0.00   0.0  0.00  0.00  0.00
 2019 237    68    68  25.6     1  57.7 0.809  2.72 194.2 1.880 0.236 2.117  6068   588   233  3002  1592   823  2832 0.448   271     0 41.03  9.01  1.00 182.0  0.82 115.7  36.7  1.00  0.00  0.00  0.00  0.00   0.0  0.00  0.00  0.00
 2019 238    69    69  25.9 1.081  58.5 0.818  2.56 181.5 1.934 0.243 2.177  6254   593   239  3074  1634   848  2941 0.452   283     0 42.76  9.21  4.00 182.0  0.82 108.2  34.3  1.00  0.00  0.00  0.00  0.00   0.0  0.00  0.00  0.00
 2019 239    70    70  24.7 1.112  59.2 0.825  3.01 201.7 1.981 0.247 2.227  6455   597   243  3131  1661   873  3081 0.459   294     0 44.50  9.39  4.00 181.9  0.83 109.5  37.6  1.00  0.00  0.00  0.00  0.00   0.0  0.02  0.00  0.00
 2019 240    71    71  26.3 1.145  60.0 0.830  2.36 159.9 2.012 0.255 2.267  6622   602   249  3217  1714   900  3156 0.459   308     0 46.29  9.58  4.00 182.0  0.84 109.9  36.1  1.00  0.00  0.00  0.00  0.00   0.0  0.00  0.00  0.00
 2019 241    72    72  26.9 1.176  60.9 0.839  2.18 165.7 2.078 0.265 2.343  6806   607   258  3319  1783   928  3230 0.457   316     0 48.18  9.51  4.00 182.1  0.85 110.3  31.8  1.00  0.00  0.00  0.00  0.00   0.0  0.00  0.00  0.00
 2019 242    73    73  26.9 1.206  61.7 0.851  2.28 156.0 2.164 0.280 2.445  6966   607   270  3453  1887   959  3244 0.449   323     0 50.19  9.35  4.00 182.4  0.86 108.0  34.6  1.00  0.00  0.00  0.00  0.00   0.0  0.00  0.00  0.00
 2019 243    74    74  25.8 1.236  62.5 0.867  2.90 203.8 2.293 0.298 2.592  7186   612   283  3612  2010   991  3290 0.442   324     0 52.27  8.98  4.00 182.3  0.87 129.0  41.3  1.00  0.00  0.00  0.00  0.00   0.0  0.00  0.00  0.00
 2019 244    75    75  26.2 1.267  63.3 0.882  2.61 210.7 2.426 0.315 2.740  7424   617   296  3758  2119  1023  3369 0.439   329     0 54.52  8.75  4.00 182.4  0.88 117.5  32.3  1.00  0.00  0.00  0.00  0.00   0.0  0.00  0.00  0.00
 2019 245    76    76  26.1 1.298  64.1 0.897  2.81 212.2 2.578 0.332 2.910  7642   621   309  3915  2237  1056  3419 0.433   337     0 56.84  8.61  4.00 182.4  0.89 115.5  33.9  1.00  0.00  0.00  0.00  0.00   0.0  0.00  0.00  0.00
 2019 246    77    77  27.0 1.330  65.0 0.909  2.42 188.0 2.722 0.352 3.074  7848   626   324  4086  2369  1091  3438 0.424   342     0 59.26  8.37  4.00 182.7  0.90 116.7  32.8  1.00  0.00  0.00  0.00  0.00   0.0  0.00  0.00  0.00
 2019 247    78    78  27.1 1.359  65.8 0.921  2.38 184.9 2.887 0.372 3.259  8049   617   339  4253  2508  1128  3456 0.417   344     0 61.80  8.08  4.00 182.9  0.91 127.5  35.6  1.00  0.00  0.00  0.00  0.00   0.0  0.00  0.00  0.00
 2019 248    79    79  26.0 1.388  66.6 0.932  2.65 215.8 3.062 0.392 3.454  8284   621   354  4430  2642  1167  3500 0.411   346     0 64.49  7.80  4.00 182.9  0.92 146.9  39.9  1.00  0.00  0.00  0.00  0.00   0.0  0.00  0.00  0.00
 2019 249    80    80  26.9 1.420  67.4 0.941  2.33 195.8 3.210 0.408 3.617  8495   626   366  4577  2746  1205  3552 0.407   350     0 67.33  7.65  4.00 183.0  0.93 137.0  35.3  1.00  0.00  0.00  0.00  0.00   0.0  0.00  0.00  0.00
 2019 250    81    81  27.0 1.450  68.2 0.948  2.26 185.7 3.355 0.422 3.777  8690   630   377  4717  2841  1245  3596 0.403   355     0 70.33  7.53  4.00 183.1  0.94 135.4  35.5  1.00  0.00  0.00  0.00  0.00   0.0  0.00  0.00  0.00
 2019 251    82    82  26.0 1.479  69.0 0.953  2.58 199.5 3.475 0.435 3.910  8894   635   388  4853  2931  1287  3653 0.400   360     0 73.38  7.41  4.00 183.1  0.95 131.0  37.2  1.00  0.00  0.00  0.00  0.00   0.0  0.00  0.00  0.00
 2019 252    83    83  25.5 1.511  69.7 0.957  2.57 208.1 3.568 0.451 4.020  9117   639   402  5009  3040  1330  3706 0.396   365 3.915 76.46  7.29  4.00 183.0  0.96 135.7  36.9  1.00  0.00  0.00  0.00  0.00   0.0  0.00  0.00  0.00
 2019 253    84    84  26.1 1.543  70.4 0.961  2.46 204.4 3.678 0.463 4.141  9328   644   414  5138  3120  1374  3775 0.395   371 13.07 79.66  7.21  4.00 183.0  0.97 153.6  40.2  1.00  0.00  0.00  0.00  0.00   0.0  0.00  0.00  0.00
 2019 254    85    85  26.0 1.574  71.2 0.963  2.74 230.1 3.737 0.468 4.205  9553   648   425  5220  3152  1419  3909 0.399   378 29.25 82.89  7.23  4.00 183.0  0.98 153.0  39.9  1.00  0.00  0.00  0.00  0.00   0.0  0.00  0.00  0.00
 2019 255    86    86  26.8 1.606  72.0 0.963  2.32 193.5 3.754 0.468 4.222  9731   653   434  5267  3150  1465  4029 0.404   391 53.51 86.18  7.42  4.00 183.1  0.98 144.4  37.3  1.00  0.00  0.00  0.00  0.00   0.0  0.00  0.00  0.00
 2019 256    87    87  27.6 1.636  72.8 0.962  2.38 194.0 3.719 0.465 4.184  9901   657   445  5298  3129  1512  4158 0.410   403 85.75 89.61  7.60  4.00 183.2  0.99 140.9  36.7  1.00  0.00  0.00  0.00  0.00   0.0  0.00  0.00  0.00
 2019 257    88    88  27.0 1.664  73.6 0.962  2.28 186.2 3.708 0.465 4.173 10069   662   456  5351  3129  1561  4262 0.413   416 115.3 93.18  7.77  4.00 183.3  1.00 140.7  36.9  1.00  0.00  0.00  0.00  0.00   0.0  0.00  0.00  0.00
 2019 258    89    89  26.6 1.694  74.3 0.962  2.57 219.6 3.701 0.462 4.164 10274   666   466  5386  3111  1609  4422 0.421   426 144.1 96.87  7.91  4.00 183.4  1.01 137.3  34.6  1.00  0.00  0.00  0.00  0.00   0.0  0.00  0.00  0.00
 2019 259    90    90  25.6 1.724  75.0 0.962  2.78 210.9 3.706 0.458 4.164 10454   670   473  5412  3083  1659  4569 0.427   442 169.7 100.6  8.17  4.00 183.3  1.02 158.4  45.9  1.00  0.00  0.00  0.00  0.00   0.0  0.00  0.00  0.00
 2019 260    91    91  26.7 1.756  75.8 0.960  2.32 183.9 3.663 0.454 4.117 10624   675   482  5444  3059  1710  4699 0.432   457 197.1 104.5  8.39  4.00 183.4  1.03 151.1  41.0  1.00  0.00  0.00  0.00  0.00   0.0  0.00  0.00  0.00
 2019 261    92    92  27.1 1.786  76.6 0.960  2.32 201.7 3.646 0.455 4.101 10820   679   492  5506  3064  1762  4822 0.436   470 221.8 108.3  8.53  4.00 183.5  1.04 166.6  41.0  1.00  0.00  0.00  0.00  0.00   0.0  0.00  0.00  0.00
 2019 262    93    93  25.5 1.815  77.2 0.960  2.58 199.3 3.650 0.454 4.104 10994   683   501  5557  3059  1815  4937 0.439   482 245.0 112.2  8.68  4.00 183.4  1.05 158.6  45.2  1.00  0.00  0.00  0.00  0.00   0.0  0.00  0.00  0.00
 2019 263    94    94  26.8 1.848  78.0 0.960  2.08 200.8 3.648 0.450 4.098 11202   687   508  5583  3028  1868  5111 0.447   494 269.1 116.3  8.84  4.00 183.5  1.06 142.6  31.7  1.00  0.00  0.00  0.00  0.00   0.0  0.00  0.00  0.00
 2019 264    95    95  26.6 1.878  78.7 0.959  2.28 213.0 3.618 0.449 4.067 11399   691   517  5639  3025  1923  5243 0.450   511 291.5 120.4  9.06  4.00 183.5  1.07 145.6  33.5  1.00  0.00  0.00  0.00  0.00   0.0  0.00  0.00  0.00
 2019 265    96    96  27.0 1.908  79.5 0.959  2.11 202.4 3.627 0.449 4.077 11592   696   525  5699  3026  1978  5368 0.454   524 311.1 124.7  9.20  4.00 183.6  1.08 143.3  32.0  1.00  0.00  0.00  0.00  0.00   0.0  0.00  0.00  0.00
 2019 266    97    97  27.8 1.937  80.3 0.958  2.02 171.3 3.605 0.447 4.052 11736   700   533  5742  3009  2034  5461 0.456   537 334.5 129.1  9.35  4.00 183.7  1.09 147.6  36.8  1.00  0.00  0.00  0.00  0.00   0.0  0.00  0.00  0.00
 2019 267    98    98  27.5 1.965  81.0 0.958  2.40 206.7 3.610 0.445 4.055 11932   704   540  5793  2999  2090  5599 0.460   546 354.4 133.7  9.43  4.00 183.8  1.10 162.2  40.1  1.00  0.00  0.00  0.00  0.00   0.0  0.00  0.00  0.00
 2019 268    99    99  27.7 1.994  81.8 0.958  2.05 192.5 3.597 0.443 4.041 12120   708   547  5841  2985  2148  5733 0.464   560 374.9 138.2  9.59  4.00 183.9  1.11 169.5  38.3  1.00  0.00  0.00  0.00  0.00   0.0  0.00  0.00  0.00
 2019 269   100   100  26.5 2.071  82.5 0.958  2.46 216.6 3.593 0.444 4.037 12321   712   554  5905  2987  2206  5861 0.467   573 392.8 142.9  9.71 16.00 183.9  1.12 168.8  41.6  1.00  0.00  0.00  0.00  0.00   0.0  0.00  0.00  0.00
 2019 270   101   101  25.9 2.102  83.2 0.958  2.56 212.0 3.592 0.444 4.036 12517   716   562  5967  2987  2264  5988 0.469   586 409.3 147.6  9.82 16.00 183.9  1.13 177.1  46.9  1.00  0.00  0.00  0.00  0.00   0.0  0.00  0.00  0.00
 2019 271   102   102  26.9 2.133  83.9 0.957  1.96 183.6 3.579 0.444 4.024 12704   720   570  6039  2992  2327  6094 0.471   599 428.8 152.3  9.91 16.00 183.9  1.14 178.2  40.8  1.00  0.00  0.00  0.00  0.00   0.0  0.00  0.00  0.00
 2019 272   103   103  27.1 2.163  84.6 0.957  2.06 179.5 3.587 0.455 4.043 12873   710   587  6172  3067  2394  6115 0.467   609 448.1 157.1  9.87 16.00 184.1  1.15 171.3  42.2  1.00  0.00  0.00  0.00  0.00   0.0  0.00  0.00  0.00
 2019 273   104   104  27.4 2.192  85.4 0.960  2.22 185.0 3.647 0.463 4.111 13050   714   600  6296  3120  2461  6154 0.463   612 466.4 162.0  9.71 16.00 184.3  1.16 165.4  42.4  1.00  0.00  0.00  0.00  0.00   0.0  0.00  0.00  0.00
 2019 274   105   105  27.3 2.221  86.1 0.962  2.15 185.1 3.706 0.469 4.174 13223   718   616  6406  3156  2532  6201 0.461   615 497.0 167.1  9.61 16.00 184.4  1.17 171.8  42.7  1.00  0.00  0.00  0.00  0.00   0.0  0.00  0.00  0.00
 2019 275   106   106  26.1 2.250  86.8 0.964  2.77 226.2 3.779 0.481 4.259 13440   722   635  6567  3237  2607  6238 0.456   620 521.2 172.3  9.44 16.00 184.4  1.18 180.0  48.2  1.00  0.00  0.00  0.00  0.00   0.0  0.00  0.00  0.00
 2019 276   107   107  26.0 2.281  87.4 0.966  2.50 206.4 3.856 0.497 4.353 13642   680   659  6715  3349  2686  6267 0.453   624 550.8 177.5  9.29 16.00 184.2  1.19 190.7  50.6  1.00  0.00  0.00  0.00  0.00   0.0  0.00  0.00  0.00
 2019 277   108   108  26.7 2.313  88.1 0.969  2.52 218.2 3.930 0.507 4.437 13849   684   681  6862  3413  2765  6306 0.449   627 588.7 182.9  9.13 16.00 184.3  1.20 185.0  46.2  1.00  0.00  0.00  0.00  0.00   0.0  0.00  0.00  0.00
 2019 278   109   109  26.9 2.343  88.8 0.971  2.25 196.0 4.014 0.512 4.526 14023   688   702  6982  3447  2848  6339 0.446   631 632.3 188.4  9.03 16.00 184.4  1.20 163.5  40.2  1.00  0.00  0.00  0.00  0.00   0.0  0.00  0.00  0.00
 2019 279   110   110  25.7 2.373  89.4 0.972  2.59 216.5 4.052 0.520 4.572 14214   690   726  7123  3499  2934  6365 0.442   634 677.2 193.9  8.90 16.00 184.2  1.20 164.7  43.3  1.00  0.00  0.00  0.00  0.00   0.0  0.00  0.00  0.00
 2019 280   111   111  25.6 2.405  90.0 0.972  2.59 200.3 4.057 0.515 4.572 14373   694   744  7184  3471  3020  6444 0.443   637 729.1 199.6  8.86 16.00 184.1  1.20 172.6  49.1  1.00  0.00  0.00  0.00  0.00   0.0  0.00  0.00  0.00
 2019 281   112   112  25.8 2.437  90.7 0.971  2.61 214.2 4.018 0.512 4.530 14555   698   765  7256  3449  3109  6534 0.443   644 787.8 205.4  8.88 16.00 183.9  1.20 173.5  46.3  1.00  0.00  0.00  0.00  0.00   0.0  0.00  0.00  0.00
 2019 282   113   113  26.9 2.469  91.4 0.970  2.09 158.4 3.979 0.509 4.488 14666   702   787  7331  3427  3202  6549 0.441   653 848.7 211.5  8.91 16.00 184.1  1.20 169.3  47.8  1.00  0.00  0.00  0.00  0.00   0.0  0.00  0.00  0.00
 2019 283   114   114  27.0 2.498  92.0 0.969  2.04 164.3 3.951 0.505 4.457 14798   705   807  7403  3403  3294  6589 0.440   655 905.7 217.7  8.85 16.00 184.2  1.20 167.6  44.4  1.00  0.00  0.00  0.00  0.00   0.0  0.00  0.00  0.00
 2019 284   115   115  26.6 2.528  92.7 0.970  2.32 195.6 3.966 0.504 4.470 14966   709   826  7491  3392  3390  6648 0.439   659 957.5 224.1  8.80 16.00 184.2  1.20 191.7  49.0  1.00  0.00  0.00  0.00  0.00   0.0  0.00  0.00  0.00
 2019 285   116   116  26.8 2.558  93.4 0.969  1.90 162.7 3.944 0.502 4.446 15097   713   847  7585  3384  3488  6665 0.436   665  1012 230.9  8.77 16.00 184.3  1.20 188.9  47.1  1.00  0.00  0.00  0.00  0.00   0.0  0.00  0.00  0.00
 2019 286   117   117  27.0 2.588  94.0 0.969  2.03 169.8 3.929 0.496 4.425 15229   717   862  7641  3338  3586  6726 0.436   666  1063 238.1  8.72 16.00 184.4  1.20 176.8  45.2  1.00  0.00  0.00  0.00  0.00   0.0  0.00  0.00  0.00
 2019 287   118   118  27.3 2.617  94.7 0.968  1.90 165.3 3.898 0.493 4.392 15366   720   880  7730  3322  3687  6756 0.435   673  1113 245.4  8.70 16.00 184.6  1.20 189.9  46.4  1.00  0.00  0.00  0.00  0.00   0.0  0.00  0.00  0.00
 2019 288   119   119  27.8 2.646  95.4 0.967  2.11 167.8 3.873 0.487 4.360 15490   724   897  7793  3281  3788  6801 0.434   676  1165 252.9  8.67 16.00 184.8  1.20 180.5  48.1  1.00  0.00  0.00  0.00  0.00   0.0  0.00  0.00  0.00
 2019 289   120   120  25.5 2.674  96.0 0.967  2.76 249.4 3.872 0.485 4.357 15725   728   912  7883  3264  3891  6931 0.436   680  1206 260.5  8.63 16.00 184.7  1.20 181.1  44.5  1.00  0.00  0.00  0.00  0.00   0.0  0.00  0.00  0.00
 2019 290   121   121  27.3 2.707  96.7 0.966  2.13 159.8 3.836 0.488 4.324 15840   731   932  8014  3286  3997  6894 0.430   693  1250 268.3  8.65 16.00 184.8  1.20 176.6  50.3  1.00  0.00  0.00  0.00  0.00   0.0  0.00  0.00  0.00
 2019 291   122   122  26.2 2.736  97.3 0.965  2.50 205.4 3.815 0.483 4.298 16020   735   948  8089  3252  4102  6984 0.431   689  1299 276.0  8.52 16.00 184.8  1.20 191.8  51.1  1.00  0.00  0.00  0.00  0.00   0.0  0.00  0.00  0.00
 2019 292   123   123  26.6 2.767  97.9 0.965  2.46 197.0 3.825 0.478 4.303 16186   738   962  8165  3217  4210  7058 0.431   698  1342 283.8  8.55 16.00 184.8  1.20 184.3  50.0  1.00  0.00  0.00  0.00  0.00   0.0  0.00  0.00  0.00
 2019 293   124   124  27.1 2.797  98.6 0.963  2.12 170.5 3.745 0.475 4.221 16323   742   982  8261  3199  4319  7081 0.429   706  1395 291.5  8.54 16.00 184.9  1.20 176.8  47.1  1.00  0.00  0.00  0.00  0.00   0.0  0.00  0.00  0.00
 2019 294   125   125  27.0 2.826  99.2 0.963  2.06 178.5 3.744 0.472 4.215 16481   745   996  8350  3176  4429  7135 0.428   708  1436 299.6  8.48 16.00 185.0  1.20 182.3  45.2  1.00  0.00  0.00  0.00  0.00   0.0  0.00  0.00  0.00
 2019 295   126   126  27.3 2.856  99.9 0.962  2.16 186.4 3.715 0.467 4.183 16635   749  1013  8435  3146  4540  7187 0.427   714  1485 307.9  8.46 16.00 185.1  1.20 191.6  47.5  1.00  0.00  0.00  0.00  0.00   0.0  0.00  0.00  0.00
 2019 296   127   127  27.2 2.885 100.5 0.963  2.00 166.8 3.736 0.472 4.208 16782   752  1030  8583  3176  4654  7168 0.423   719  1520 316.5  8.37 16.00 185.2  1.20 191.7  49.4  1.00  0.00  0.00  0.00  0.00   0.0  0.00  0.00  0.00
 2019 297   128   128  25.8 2.914 101.1 0.962  2.80 238.8 3.725 0.467 4.192 16994   756  1044  8668  3145  4767  7282 0.424   717  1562 325.1  8.27 16.00 185.1  1.20 184.6  48.0  1.00  0.00  0.00  0.00  0.00   0.0  0.00  0.00  0.00
 2019 298   129   129  27.8 2.946 101.7 0.963  1.85 155.1 3.732 0.464 4.196 17125   759  1057  8766  3125  4882  7302 0.422   728  1597 334.0  8.31 16.00 185.3  1.20 181.6  46.0  1.00  0.00  0.00  0.00  0.00   0.0  0.00  0.00  0.00
 2019 299   130   130  27.3 2.974 102.4 0.960  2.39 206.2 3.663 0.461 4.124 17303   763  1074  8865  3104  4998  7364 0.421   730  1644 342.9  8.24 16.00 185.4  1.20 191.6  47.8  1.00  0.00  0.00  0.00  0.00   0.0  0.00  0.00  0.00
 2019 300   131   131  25.8 3.008 102.9 0.961  2.59 200.3 3.686 0.460 4.147 17474   766  1087  8979  3099  5114  7407 0.420   736  1676 351.8  8.20 64.00 185.2  1.20 192.1  55.1  1.00  0.00  0.00  0.00  0.00   0.0  0.00  0.00  0.00
 2019 301   132   132  25.7 3.040 103.5 0.959  2.54 211.4 3.624 0.449 4.073 17659   770  1097  9025  3025  5230  7537 0.422   741  1721 360.6  8.21 64.00 185.1  1.20 187.3  50.0  1.00  0.00  0.00  0.00  0.00   0.0  0.00  0.00  0.00
 2019 302   133   133  27.5 3.072 104.1 0.957  1.91 172.8 3.564 0.458 4.021 17826   773  1119  9209  3082  5353  7498 0.416   754  1757 369.7  8.18 64.00 185.4  1.20 175.8  41.4  1.00  0.00  0.00  0.00  0.00   0.0  0.00  0.00  0.00
 2019 303   134   134  28.1 3.101 104.8 0.959  1.50 135.1 3.633 0.462 4.095 17945   776  1136  9362  3109  5476  7447 0.411   750  1790 379.0  8.01 64.00 185.6  1.20 168.4  39.6  1.00  0.00  0.00  0.00  0.00   0.0  0.00  0.00  0.00
 2019 304   135   135  27.1 3.128 105.4 0.961  2.14 192.6 3.695 0.484 4.179 18135   780  1165  9646  3259  5607  7323 0.400   745  1822 388.6  7.72 64.00 185.8  1.20 191.4  45.7  1.00  0.00  0.00  0.00  0.00   0.0  0.00  0.00  0.00
 2019 305   136   136  27.6 3.157 106.0 0.966  1.72 153.4 3.841 0.506 4.347 18278   783  1199  9934  3406  5745  7145 0.387   732  1865 398.5  7.37 64.00 186.1  1.20 183.1  43.6  1.00  0.00  0.00  0.00  0.00   0.0  0.00  0.00  0.00
 2019 306   137   137  27.0 3.186 106.6 0.971  2.11 192.5 4.016 0.523 4.539 18457   786  1229 10190  3521  5883  7038 0.378   715  1910 408.7  7.01 64.00 186.1  1.20 191.4  45.2  1.00  0.00  0.00  0.00  0.00   0.0  0.00  0.00  0.00
 2019 307   138   138  27.6 3.215 107.3 0.973  1.89 165.6 4.095 0.548 4.643 18599   790  1271 10509  3692  6027  6819 0.363   704  1972 419.2  6.70 64.00 186.5  1.20 165.8  40.0  1.00  0.00  0.00  0.00  0.00   0.0  0.00  0.00  0.00
 2019 308   139   139  27.7 3.244 107.9 0.976  1.72 150.2 4.244 0.565 4.809 18718   793  1309 10769  3805  6171  6639 0.351   682  2041 430.0  6.33 64.00 186.8  1.20 156.9  37.8  1.00  0.00  0.00  0.00  0.00   0.0  0.00  0.00  0.00
 2019 309   140   140  28.4 3.272 108.5 0.979  1.63 147.8 4.371 0.582 4.953 18828   796  1353 11035  3917  6322  6439 0.339   664  2126 441.1  6.02 64.00 187.4  1.20 152.4  34.9  1.00  0.00  0.00  0.00  0.00   0.0  0.00  0.00  0.00
 2019 310   141   141  28.2 3.299 109.2 0.981  1.50 134.6 4.491 0.600 5.091 18916   800  1401 11317  4039  6479  6198 0.325   644  2219 452.6  5.69 64.00 187.9  1.20 148.0  34.4  1.00  0.00  0.00  0.00  0.00   0.0  0.00  0.00  0.00
 2019 311   142   142  28.0 3.326 109.8 0.983  1.24 112.1 4.599 0.586 5.185 18957   803  1429 11385  3947  6635  6143 0.321   620  2319 464.5  5.44 64.00 188.1  1.20 143.6  33.1  1.00  0.00  0.00  0.00  0.00   0.0  0.00  0.00  0.00
 2019 312   143   143  28.4 3.354 110.4 0.980  1.34 125.4 4.470 0.586 5.056 19015   806  1470 11549  3945  6798  5996 0.312   614  2430 476.6  5.32 64.00 188.5  1.20 139.0  30.6  1.00  0.00  0.00  0.00  0.00   0.0  0.00  0.00  0.00
 2019 313   144   144  28.5 3.381 111.1 0.978  1.27 117.4 4.347 0.575 4.922 19034   809  1515 11645  3871  6966  5874 0.306   600  2572 489.1  5.15 64.00 189.0  1.20 134.6  30.0  1.00  0.00  0.00  0.00  0.00   0.0  0.00  0.00  0.00
 2019 314   145   145  27.5 3.407 111.7 0.979  1.89 167.0 4.403 0.569 4.972 19128   812  1551 11777  3832  7133  5800 0.300   587  2678 502.0  4.99 64.00 189.0  1.20 142.3  34.0  1.00  0.00  0.00  0.00  0.00   0.0  0.00  0.00  0.00
 2019 315   146   146  27.8 3.436 112.3 0.977  1.72 150.0 4.280 0.557 4.837 19188   816  1589 11872  3751  7306  5727 0.296   580  2805 515.2  4.89 64.00 189.1  1.20 139.9  33.7  1.00  0.00  0.00  0.00  0.00   0.0  0.00  0.00  0.00
 2019 316   147   147  26.8 3.464 112.8 0.976  1.88 147.6 4.257 0.543 4.800 19258   819  1616 11953  3657  7478  5688 0.293   573  2903 528.7  4.79 64.00 188.9  1.20 136.2  37.1  1.00  0.00  0.00  0.00  0.00   0.0  0.00  0.00  0.00
 2019 317   148   148  27.5 3.494 113.4 0.974  1.67 154.6 4.148 0.544 4.692 19360   822  1656 12139  3662  7655  5565 0.285   569  3008 542.4  4.69 64.00 188.9  1.20 132.2  30.1  1.00  0.00  0.00  0.00  0.00   0.0  0.00  0.00  0.00
 2019 318   149   149  27.8 3.523 114.0 0.976  1.75 163.2 4.255 0.559 4.814 19484   825  1698 12428  3766  7837  5358 0.272   557  3089 556.5  4.48 64.00 189.1  1.20 127.8  29.0  1.00  0.00  0.00  0.00  0.00   0.0  0.00  0.00  0.00
 2019 319   150   150  27.4 3.550 114.6 0.978  1.39 133.4 4.316 0.544 4.860 19548   828  1724 12507  3661  8018  5317 0.270   536  3187 571.0  4.28 64.00 189.1  1.20 123.3  27.2  1.00  0.00  0.00  0.00  0.00   0.0  0.00  0.00  0.00
 2019 320   151   151  27.9 3.578 115.2 0.973  1.39 128.7 4.111 0.532 4.643 19594   831  1759 12618  3584  8203  5217 0.264   532  3303 585.6  4.21 64.00 189.2  1.20 118.8  26.8  1.00  0.00  0.03  0.00  0.00   0.0  0.00  0.00  0.00
 2019 321   152   152  28.3 3.604 115.7 0.972  1.35 126.6 4.069 0.527 4.595 19657   834  1792 12768  3546  8388  5098 0.257   522  3400 600.6  4.09 64.00 189.5  1.20 114.3  25.5  1.00  0.00  0.09  0.00  0.00   0.0  0.00  0.00  0.00
 2019 322   153   153  28.5 3.627 116.3 0.969  1.18 112.4 3.950 0.513 4.462 19684   837  1827 12865  3451  8577  4992 0.251   510  3521 615.8  3.96 64.00 189.8  1.20 109.7  24.0  1.00  0.00  0.14  0.00  0.00   0.0  0.00  0.00  0.00
 2019 323   154   154  28.6 3.648 116.8 0.969  1.17 107.0 3.964 0.508 4.472 19729   840  1858 13028  3418  8769  4843 0.243   499  3613 631.3  3.83 64.00 190.2  1.20 105.3  24.0  1.00  0.00  0.20  0.00  0.00   0.0  0.00  0.00  0.00
 2019 324   155   155  28.0 3.668 117.2 0.969  1.57 134.2 3.950 0.499 4.449 19800   843  1885 13168  3363  8961  4747 0.238   484  3699 647.1  3.68 64.00 190.2  1.20 128.0  31.7  1.00  0.00  0.25  0.00  0.00   0.0  0.00  0.00  0.00
 2019 325   156   156  27.3 3.696 117.8 0.969  1.58 134.9 3.941 0.504 4.446 19893   846  1916 13399  3396  9157  4578 0.228   475  3772 663.1  3.54 64.00 190.0  1.20 128.2  32.1  1.00  0.00  0.00  0.00  0.00   0.0  0.00  0.00  0.00
 2019 326   157   157  28.4 3.725 118.4 0.969  1.61 138.2 3.940 0.499 4.439 19977   849  1943 13561  3360  9352  4473 0.222   458  3854 679.4  3.38 64.00 190.2  1.20 124.1  30.4  1.00  0.00  0.00  0.00  0.00   0.0  0.00  0.00  0.00
 2019 327   158   158  28.3 3.752 118.9 0.968  1.18 106.2 3.925 0.501 4.426 20042   852  1973 13774  3372  9550  4295 0.212   447  3929 695.9  3.25 64.00 190.4  1.20 119.8  27.8  1.00  0.00  0.00  0.00  0.00   0.0  0.00  0.00  0.00
 2019 328   159   159  28.2 3.779 119.5 0.968  1.16 101.4 3.907 0.497 4.403 20086   855  2002 13946  3344  9747  4138 0.204   429  4013 712.7  3.08 64.00 190.6  1.20 115.6  27.9  1.00  0.00  0.00  0.00  0.00   0.0  0.00  0.00  0.00
 2019 329   160   160  28.4 3.806 120.1 0.968  1.33 120.1 3.922 0.491 4.412 20158   858  2025 14110  3304  9947  4024 0.198   414  4086 729.7  2.93 64.00 190.7  1.20 111.3  26.0  1.00  0.00  0.00  0.00  0.00   0.0  0.00  0.00  0.00
 2019 330   161   161  28.2 3.831 120.7 0.965  1.17 105.8 3.824 0.479 4.303 20206   861  2047 14234  3226 10147  3924 0.193   402  4166 746.9  2.83 64.00 190.8  1.20 107.0  24.9  1.00  0.00  0.06  0.00  0.00   0.0  0.00  0.00  0.00
 2019 331   162   162  28.6 3.855 121.2 0.964  0.75  70.7 3.774 0.473 4.247 20229   864  2071 14401  3188 10349  3756 0.184   392  4240 764.3  2.72 64.00 191.0  1.20 102.4  22.3  1.00  0.00  0.11  0.00  0.00   0.0  0.00  0.00  0.00
 2019 332   163   163  27.8 3.877 121.6 0.961  0.69  66.1 3.693 0.464 4.157 20242   867  2093 14543  3125 10551  3606 0.177   376  4315 781.9  2.58 64.00 190.9  1.20  97.8  21.4  1.00  0.00  0.18  0.00  0.00   0.0  0.00  0.00  0.00
 2019 333   164   164  28.1 3.899 122.1 0.960  0.92  85.0 3.661 0.458 4.119 20277   870  2115 14709  3084 10755  3453 0.169   361  4386 799.7  2.45 64.00 191.0  1.20  93.3  21.4  1.00  0.00  0.24  0.00  0.00   0.0  0.00  0.00  0.00
 2019 334   165   165  28.0 3.918 122.5 0.962  0.83  79.7 3.723 0.465 4.188 20339   873  2136 14963  3132 10958  3239 0.158   345  4426 817.7  2.31 64.00 191.0  1.20  88.7  19.6  1.00  0.00  0.29  0.00  0.00   0.0  0.00  0.00  0.00
 2019 335   166   166  27.2 3.936 122.8 0.961  1.04  90.1 3.694 0.460 4.154 20381   876  2157 15139  3099 11164  3085 0.150   324  4491 835.9  2.14 64.00 190.8  1.20 111.9  27.7  1.00  0.02  0.35  0.00  0.00   0.0  0.00  0.00  0.00
 2019 336   167   167  27.8 3.964 123.3 0.964  1.02  91.2 3.787 0.477 4.264 20466   878  2182 15458  3211 11369  2826 0.137   309  4524 854.2  2.00 64.00 190.8  1.20 107.6  25.7  1.00  0.00  0.02  0.00  0.00   0.0  0.00  0.00  0.00
 2019 337   168   168  27.6 3.992 123.9 0.965  1.09  97.0 3.824 0.475 4.299 20526   881  2202 15657  3200 11576  2667 0.129   283  4581 872.7  1.81 64.00 190.7  1.20 103.4  24.7  1.00  0.00  0.01  0.00  0.00   0.0  0.00  0.00  0.00
 2019 338   169   169  27.7 4.068 124.4 0.965  1.16 110.4 3.804 0.480 4.284 20606   884  2226 15896  3229 11782  2484 0.120   267  4639 891.5  1.68192.00 190.7  1.20  98.9  22.1  1.00  0.00  0.03  0.00  0.00   0.0  0.00  0.00  0.00
 2019 339   170   170  27.5 4.094 124.9 0.963  1.10 101.0 3.735 0.463 4.198 20650   887  2240 15991  3116 11988  2419 0.116   248  4708 910.4  1.55192.00 190.6  1.20  94.5  21.9  1.00  0.00  0.10  0.00  0.00   0.0  0.00  0.00  0.00
 2019 340   171   171  27.8 4.118 125.3 0.959  0.91  76.9 3.625 0.473 4.098 20684   889  2263 16208  3188 12132  2213 0.106   242  4769 929.4  1.49192.00 190.5  1.20  90.4  22.8  1.00  0.00  0.16  0.00  0.00   0.0  0.00  0.00  0.00
 2019 341   172   172  27.6 4.140 125.7 0.961  0.86  79.6 3.691 0.485 4.176 20745   891  2283 16452  3267 12295  2010 0.096   221  4812 948.7  1.35192.00 190.5  1.20  85.9  19.9  1.00  0.00  0.21  0.00  0.00   0.0  0.00  0.00  0.00
 2019 342   173   173  27.7 4.160 126.1 0.962  0.84  74.7 3.704 0.488 4.192 20776   893  2303 16644  3286 12465  1828 0.087   201  4874 968.1  1.21192.00 190.4  1.20  81.7  19.6  1.00  0.00  0.27  0.00  0.00   0.0  0.00  0.00  0.00
 2019 343   174   174  28.2 4.179 126.5 0.968  0.71  66.6 3.927 0.497 4.424 20817   895  2317 16840  3349 12597  1660 0.079   183  4915 987.6  1.09192.00 190.5  1.20  77.1  17.2  1.00  0.00  0.33  0.00  0.00   0.0  0.00  0.00  0.00
 2019 344   175   175  27.4 4.196 126.8 0.968  0.73  67.0 3.915 0.498 4.413 20838   896  2333 16991  3357 12738  1514 0.072   166  4977  1007  0.98192.00 190.4  1.20  99.1  23.0  1.00  0.09  0.40  0.00  0.00   0.0  0.00  0.00  0.00
 2019 345   176   176  26.7 4.222 127.3 0.969  1.22 119.1 3.954 0.512 4.466 20922   898  2351 17186  3447 12841  1385 0.066   151  5032  1027  0.88192.00 190.0  1.20  94.5  21.0  1.00  0.00  0.08  0.00  0.00   0.0  0.00  0.00  0.00
 2019 346   177   177  26.9 4.250 127.7 0.970  1.00  94.8 3.981 0.512 4.493 20969   899  2366 17333  3451 12983  1269 0.060   139  5094  1047  0.80192.00 189.8  1.20  90.0  20.5  1.00  0.00  0.07  0.00  0.00   0.0  0.00  0.00  0.00
 2019 347   178   178  27.6 4.276 128.2 0.970  0.79  78.4 3.986 0.513 4.499 21002   901  2379 17460  3455 13104  1163 0.055   127  5154  1067  0.73192.00 189.8  1.20  85.2  18.1  1.00  0.00  0.13  0.00  0.00   0.0  0.00  0.00  0.00
 2019 348   179   179  26.9 4.299 128.6 0.971  1.01  93.5 4.015 0.514 4.529 21039   902  2392 17576  3462 13212  1070 0.050   116  5221  1087  0.66192.00 189.5  1.20  80.8  18.9  1.00  0.00  0.20  0.00  0.00   0.0  0.00  0.00  0.00
 2019 349   180   180  26.7 4.320 128.9 0.969  0.96  92.4 3.955 0.505 4.461 21068   904  2409 17669  3402 13363   991 0.047   107  5303  1108  0.61192.00 189.3  1.20  76.4  17.0  1.00  0.00  0.27  0.00  0.00   0.0  0.00  0.00  0.00
 2019 350   181   181  27.2 4.340 129.2 0.969  0.61  58.8 3.933 0.503 4.436 21068   905  2418 17737  3384 13448   913 0.043    99  5371  1128  0.56192.00 189.2  1.20  71.8  15.9  1.00  0.01  0.34  0.00  0.00   0.0  0.00  0.00  0.00
 2019 351   182   182  27.5 4.357 129.5 0.964  0.55  50.8 3.781 0.491 4.272 21042   906  2429 17767  3308 13553   846 0.040    91  5458  1149  0.51192.00 189.2  1.20  92.9  21.3  1.00  0.11  0.41  0.00  0.00   0.0  0.00  0.00  0.00
 2019 352   183   183  28.0 4.383 130.0 0.964  0.92  76.1 3.789 0.484 4.273 21061   907  2437 17842  3260 13674   783 0.037    85  5519  1169  0.47192.00 189.3  1.20  88.9  22.9  1.00  0.00  0.11  0.00  0.00   0.0  0.00  0.00  0.00
 2019 353   184   184  27.6 4.408 130.5 0.965  0.76  65.7 3.801 0.484 4.285 21077   908  2442 17911  3256 13747   724 0.034    78  5576  1190  0.44192.00 189.3  1.20  84.8  20.9  1.00  0.00  0.09  0.00  0.00   0.0  0.00  0.00  0.00
 2019 354   185   185  27.2 4.432 130.9 0.964  0.55  51.0 3.765 0.477 4.242 21082   909  2444 17970  3214 13846   668 0.031    72  5627  1211  0.40192.00 189.2  1.20  80.3  18.4  1.00  0.00  0.16  0.00  0.00   0.0  0.00  0.00  0.00
 2019 355   186   186  26.5 4.454 131.2 0.960  0.78  73.2 3.667 0.470 4.138 21089   910  2452 18012  3168 13935   625 0.029    67  5701  1232  0.37192.00 188.9  1.20  75.9  17.5  1.00  0.00  0.23  0.00  0.00   0.0  0.00  0.00  0.00
 2019 356   187   187  25.5 4.476 131.5 0.958  1.24 125.4 3.603 0.469 4.072 21164   911  2462 18112  3160 14041   590 0.028    63  5765  1253  0.35192.00 188.4  1.20  71.4  15.7  1.00  0.00  0.30  0.00  0.00   0.0  0.00  0.00  0.00
 2019 357   188   188  26.4 4.496 131.8 0.958  0.50  48.5 3.610 0.459 4.069 21153   912  2464 18140  3090 14138   549 0.026    59  5823  1273  0.33192.00 188.2  1.20  66.9  15.1  1.00  0.06  0.37  0.00  0.00   0.0  0.00  0.00  0.00
 2019 358   189   189  26.7 4.513 132.1 0.958  0.26  25.1 3.601 0.453 4.054 21126   913  2460 18158  3048 14197   508 0.024    55  5871  1294  0.30192.00 188.1  1.20  88.5  19.6  1.00  0.16  0.44  0.00  0.00   0.0  0.00  0.00  0.00
 2019 359   190   190  26.6 4.539 132.5 0.953  0.63  61.3 3.463 0.440 3.904 21127   914  2464 18185  2964 14307   477 0.022    51  5936  1315  0.28192.00 188.0  1.20  83.9  18.7  1.00  0.00  0.13  0.00  0.00   0.0  0.00  0.00  0.00
 2019 360   191   191  26.9 4.566 132.9 0.951  0.56  57.3 3.439 0.434 3.872 21139   915  2462 18230  2920 14395   446 0.021    48  5981  1336  0.26192.00 187.9  1.20  79.2  17.0  1.00  0.00  0.13  0.00  0.00   0.0  0.00  0.00  0.00
 2019 361   192   192  26.7 4.589 133.2 0.949  0.65  60.0 3.392 0.428 3.820 21149   916  2461 18271  2884 14471   418 0.020    45  6026  1357  0.24192.00 187.8  1.20  74.8  17.6  1.00  0.00  0.21  0.00  0.00   0.0  0.00  0.00  0.00
 2019 362   193   193  26.5 4.611 133.6 0.946  0.54  48.6 3.309 0.420 3.729 21148   916  2458 18299  2829 14554   391 0.018    42  6072  1378  0.23192.00 187.7  1.20  70.6  17.3  1.00  0.00  0.28  0.00  0.00   0.0  0.00  0.00  0.00
 2019 363   194   194  25.7 4.631 133.8 0.947  0.50  47.8 3.329 0.419 3.748 21166   917  2450 18354  2822 14614   363 0.017    39  6096  1399  0.21192.00 187.5  1.20  66.2  15.4  1.00  0.02  0.35  0.00  0.00   0.0  0.00  0.00  0.00
 2019 364   195   195  26.1 4.650 134.1 0.952  0.49  48.3 3.452 0.426 3.878 21202   917  2437 18433  2868 14648   331 0.016    36  6096  1420  0.20192.00 187.4  1.20  62.0  14.0  1.00  0.12  0.42  0.00  0.00   0.0  0.00  0.00  0.00
 2019 365   196   196  26.4 4.666 134.3 0.947  0.45  38.8 3.328 0.418 3.746 21192   918  2432 18449  2812 14719   310 0.015    33  6136  1441  0.18192.00 187.3  1.20  85.5  21.9  1.00  0.22  0.48  0.00  0.00   0.0  0.00  0.00  0.00
 2020   1   197   197  26.2 4.692 134.7 0.944  0.70  66.8 3.273 0.413 3.686 21220   919  2428 18498  2781 14798   294 0.014    31  6173  1461  0.17192.00 187.2  1.20  81.3  18.8  1.00  0.00  0.15  0.00  0.00   0.0  0.00  0.00  0.00
 2020   2   198   198  25.2 4.718 135.0 0.942  1.14 105.3 3.242 0.412 3.654 21289   920  2427 18579  2775 14885   283 0.013    29  6208  1482  0.16192.00 186.9  1.20  77.2  19.1  1.00  0.00  0.15  0.00  0.00   0.0  0.00  0.00  0.00
 2020   3   199   199  23.6 4.745 135.3 0.943  1.00  97.4 3.252 0.411 3.663 21356   920  2425 18660  2769 14970   272 0.013    28  6238  1503  0.15192.00 186.3  1.20  73.1  17.5  1.00  0.00  0.20  0.00  0.00   0.0  0.09  0.03  0.00
 2020   4   200   200  25.0 4.769 135.6 0.942  0.76  63.4 3.232 0.407 3.638 21375   921  2419 18698  2740 15037   258 0.012    27  6270  1523  0.15192.00 186.1  1.20  69.4  18.9  1.00  0.00  0.27  0.00  0.00   0.0  0.00  0.00  0.00
 2020   5   201   201  25.0 4.791 135.9 0.946  1.15  98.5 3.323 0.416 3.739 21465   922  2410 18813  2801 15091   242 0.011    26  6270  1544  0.14192.00 185.9  1.20  65.6  17.4  1.00  0.00  0.33  0.00  0.00   0.0  0.00  0.00  0.00
 2020   6   202   202  26.2 4.812 136.1 0.950  1.08  98.9 3.396 0.426 3.821 21559   922  2401 18930  2867 15140   228 0.010    24  6270  1564  0.13192.00 185.9  1.20  61.4  14.9  1.00  0.09  0.39  0.00  0.00   0.0  0.00  0.00  0.00
 2020   7   203   203  27.6 4.828 136.4 0.952  0.49  47.1 3.460 0.431 3.891 21595   922  2387 18997  2901 15173   211 0.010    23  6270  1585  0.12192.00 185.9  1.20  82.2  18.5  1.00  0.19  0.46  0.00  0.00   0.0  0.00  0.00  0.00
 2020   8   204   204  28.1 4.852 136.8 0.948  0.72  65.4 3.349 0.424 3.773 21617   923  2383 19031  2857 15251   204 0.009    21  6307  1605  0.11192.00 186.1  1.20  78.0  18.3  1.00  0.00  0.17  0.00  0.00   0.0  0.00  0.00  0.00
 2020   9   205   205  28.3 4.875 137.2 0.946  0.48  37.3 3.312 0.418 3.730 21605   923  2375 19034  2813 15297   195 0.009    20  6345  1625  0.11192.00 186.3  1.20  74.2  19.6  1.00  0.00  0.17  0.00  0.00   0.0  0.00  0.00  0.00
 2020  10   206   206  28.0 4.896 137.6 0.942  0.48  43.2 3.245 0.409 3.655 21607   924  2369 19049  2757 15367   189 0.009    20  6383  1645  0.10192.00 186.4  1.20  69.7  16.0  1.00  0.00  0.23  0.00  0.00   0.0  0.00  0.00  0.00
 2020  11   207   207  27.8 4.915 137.9 0.939  0.79  73.1 3.177 0.403 3.580 21639   925  2365 19088  2714 15449   186 0.009    19  6420  1665  0.10192.00 186.5  1.20  65.5  15.4  1.00  0.00  0.30  0.00  0.00   0.0  0.00  0.00  0.00
 2020  12   208   208  28.5 4.933 138.2 0.944  0.64  55.0 3.283 0.407 3.690 21676   925  2353 19149  2743 15481   174 0.008    19  6424  1686  0.10192.00 186.6  1.20  61.3  14.9  1.00  0.06  0.37  0.00  0.00   0.0  0.00  0.00  0.00
 2020  13   209   209  29.8 4.948 138.5 0.946  0.31  25.5 3.322 0.410 3.732 21684   925  2337 19188  2762 15501   160 0.007    17  6424  1706  0.09192.00 186.7  1.20  56.8  13.0  1.00  0.16  0.44  0.00  0.00   0.0  0.00  0.00  0.00
 2020  14   210   210  29.0 4.960 138.8 0.947  0.30  25.3 3.347 0.413 3.760 21694   925  2321 19227  2781 15521   146 0.007    16  6424  1725  0.08192.00 186.8  1.20  80.1  18.4  1.00  0.27  0.51  0.00  0.00   0.0  0.00  0.00  0.00
 2020  15   211   211  29.1 4.981 139.2 0.949  0.71  65.1 3.386 0.419 3.805 21748   926  2308 19302  2820 15555   138 0.006    15  6424  1745  0.08192.00 186.9  1.20  75.5  16.9  1.00  0.00  0.18  0.00  0.00   0.0  0.00  0.00  0.00
 2020  16   212   212  27.5 5.016 139.6 0.951  0.78  61.9 3.428 0.424 3.852 21792   926  2295 19367  2852 15589   130 0.006    14  6424  1765  0.07576.00 186.9  1.20  71.8  19.6  1.00  0.00  0.18  0.00  0.00   0.0  0.00  0.00  0.00
 2020  17   213   213  26.6 5.038 139.9 0.947  0.51  45.9 3.344 0.415 3.759 21805   927  2288 19389  2793 15670   128 0.006    13  6454  1784  0.07576.00 186.9  1.20  67.7  16.3  1.00  0.00  0.24  0.00  0.00   0.0  0.00  0.00  0.00
 2020  18   214   214  26.8 5.058 140.2 0.944  1.00  83.2 3.266 0.407 3.673 21852   928  2283 19438  2740 15770   130 0.006    13  6484  1804  0.07576.00 186.9  1.20  66.7  17.6  1.00  0.00  0.31  0.00  0.00   0.0  0.00  0.00  0.00
 2020  19   215   215  25.8 5.079 140.5 0.941  0.95  83.3 3.207 0.407 3.614 21904   928  2279 19493  2742 15823   132 0.006    13  6513  1823  0.07576.00 186.7  1.20  62.8  16.0  1.00  0.00  0.32  0.00  0.00   0.0  0.00  0.00  0.00
 2020  20   216   216  26.7 5.099 140.7 0.940  0.69  60.5 3.196 0.404 3.601 21927   928  2273 19522  2724 15870   132 0.006    13  6544  1842  0.07576.00 186.6  1.20  58.8  14.9  1.00  0.07  0.38  0.00  0.00   0.0  0.00  0.00  0.00
 2020  21   217   217  28.1 5.115 141.0 0.943  0.36  33.0 3.249 0.404 3.653 21937   929  2261 19550  2721 15900   126 0.006    13  6557  1862  0.07576.00 186.7  1.20  54.4  12.2  1.00  0.17  0.45  0.00  0.00   0.0  0.00  0.00  0.00
 2020  22   218   218  28.2 5.128 141.2 0.945  0.18  16.1 3.300 0.406 3.706 21936   929  2244 19576  2736 15911   116 0.005    13  6557  1881  0.06576.00 186.7  1.20  77.8  17.6  1.00  0.28  0.52  0.00  0.00   0.0  0.00  0.00  0.00
 2020  23   219   219  27.8 5.151 141.6 0.946  0.72  69.2 3.320 0.414 3.734 21994   929  2233 19651  2790 15932   111 0.005    12  6557  1900  0.06576.00 186.8  1.20  73.4  16.7  1.00  0.00  0.19  0.00  0.00   0.0  0.00  0.00  0.00
 2020  24   220   220  27.5 5.173 142.0 0.949  0.34  33.7 3.388 0.419 3.807 22015   929  2218 19694  2821 15944   103 0.005    11  6557  1919  0.06576.00 186.8  1.20  68.7  14.8  1.00  0.00  0.19  0.00  0.00   0.0  0.00  0.00  0.00
 2020  25   221   221  26.8 5.194 142.3 0.951  0.16  16.7 3.427 0.422 3.848 22016   929  2202 19720  2839 15952    95 0.004    10  6557  1938  0.05576.00 186.8  1.20  63.6  12.9  1.00  0.00  0.27  0.00  0.00   0.0  0.00  0.00  0.00
 2020  26   222   222  25.3 5.213 142.5 0.948  0.16  17.8 3.353 0.418 3.771 22000   929  2190 19718  2816 15973    92 0.004     9  6580  1957  0.05576.00 186.7  1.20  58.4  11.4  1.00  0.03  0.36  0.00  0.00   0.0  0.00  0.00  0.00
 2020  27   223   223  26.0 5.231 142.7 0.946  0.26  24.9 3.314 0.415 3.729 21989   929  2180 19718  2792 15997    91 0.004     9  6605  1975  0.05576.00 186.6  1.20  53.9  12.4  1.00  0.16  0.44  0.00  0.00   0.0  0.00  0.00  0.00
 2020  28   224   224  26.5 5.247 142.9 0.944  0.39  39.4 3.276 0.412 3.688 21994   930  2172 19730  2775 16026    92 0.004     9  6631  1994  0.05576.00 186.5  1.20  75.8  16.6  1.00  0.27  0.51  0.00  0.00   0.0  0.00  0.00  0.00
 2020  29   225   225  27.1 5.271 143.3 0.943  0.43  43.0 3.259 0.411 3.670 22003   930  2163 19747  2769 16048    93 0.004     9  6656  2012  0.05576.00 186.6  1.20  71.0  15.2  1.00  0.00  0.20  0.00  0.00   0.0  0.00  0.00  0.00
 2020  30   226   226  27.2 5.294 143.6 0.946  0.16  16.5 3.313 0.411 3.724 21996   930  2149 19758  2766 16062    88 0.004     9  6667  2031  0.05576.00 186.6  1.20  66.2  13.5  1.00  0.00  0.21  0.00  0.00   0.0  0.00  0.00  0.00
 2020  31   227   227  27.4 5.315 143.9 0.948  0.33  30.3 3.354 0.414 3.768 22010   930  2135 19793  2790 16073    82 0.004     9  6667  2049  0.04576.00 186.6  1.20  62.6  14.4  1.00  0.00  0.29  0.00  0.00   0.0  0.00  0.00  0.00
 2020  32   228   228  27.0 5.334 144.2 0.949  0.30  32.2 3.385 0.418 3.803 22031   930  2121 19833  2817 16086    78 0.003     8  6667  2067  0.04576.00 186.6  1.20  57.7  11.6  1.00  0.02  0.35  0.00  0.00   0.0  0.00  0.00  0.00
 2020  33   229   229  26.5 5.350 144.4 0.951  0.49  47.9 3.417 0.423 3.841 22064   930  2107 19882  2851 16101    74 0.003     8  6667  2085  0.04576.00 186.6  1.20  53.3  12.1  1.00  0.15  0.43  0.00  0.00   0.0  0.00  0.00  0.00
 2020  34   230   230  26.8 5.365 144.6 0.947  0.52  51.0 3.345 0.421 3.766 22081   930  2101 19902  2836 16136    78 0.003     7  6695  2103  0.04576.00 186.5  1.20  74.7  16.8  1.00  0.26  0.50  0.00  0.00   0.0  0.00  0.00  0.00
 2020  35   231   231  26.9 5.389 145.0 0.947  0.74  70.7 3.333 0.421 3.755 22120   931  2095 19942  2836 16175    83 0.004     8  6720  2121  0.04576.00 186.5  1.20  70.3  16.0  1.00  0.00  0.20  0.00  0.00   0.0  0.00  0.00  0.00
 2020  36   232   232  27.1 5.413 145.3 0.947  0.72  62.6 3.332 0.420 3.752 22147   931  2089 19971  2828 16212    87 0.004     8  6747  2139  0.04576.00 186.6  1.20  66.4  16.8  1.00  0.00  0.22  0.00  0.00   0.0  0.00  0.00  0.00
 2020  37   233   233  27.5 5.434 145.6 0.946  0.58  53.8 3.317 0.418 3.735 22169   931  2083 19996  2815 16250    90 0.004     9  6774  2156  0.04576.00 186.6  1.20  62.1  14.6  1.00  0.00  0.28  0.00  0.00   0.0  0.00  0.00  0.00
 2020  38   234   234  27.2 5.453 145.9 0.949  0.58  61.5 3.387 0.423 3.809 22218   931  2074 20055  2847 16276    90 0.004     9  6781  2174  0.04576.00 186.7  1.20  58.1  11.9  1.00  0.02  0.35  0.00  0.00   0.0  0.00  0.00  0.00
 2020  39   235   235  28.4 5.470 146.2 0.952  0.20  21.2 3.457 0.425 3.882 22224   931  2059 20082  2864 16287    83 0.004     9  6781  2192  0.04576.00 186.7  1.20  53.2  10.1  1.00  0.12  0.41  0.00  0.00   0.0  0.00  0.00  0.00
 2020  40   236   236  28.4 5.483 146.4 0.949  0.32  25.8 3.373 0.421 3.794 22213   932  2050 20081  2835 16315    83 0.004     8  6806  2209  0.04576.00 186.8  1.20  49.3  12.5  1.00  0.24  0.49  0.00  0.00   0.0  0.00  0.00  0.00
 2020  41   237   237  28.4 5.495 146.6 0.947  0.42  40.4 3.337 0.418 3.755 22223   932  2042 20096  2816 16348    84 0.004     8  6832  2227  0.04576.00 187.0  1.20  73.2  16.0  1.00  0.34  0.56  0.00  0.00   0.0  0.00  0.00  0.00
 2020  42   238   238  28.9 5.516 147.0 0.946  0.42  38.9 3.323 0.413 3.736 22229   932  2034 20109  2782 16396    85 0.004     8  6856  2244  0.04576.00 187.1  1.20  69.4  15.6  1.00  0.00  0.21  0.00  0.00   0.0  0.00  0.00  0.00
 2020  43   239   239  28.0 5.537 147.3 0.945  0.76  68.4 3.304 0.414 3.718 22272   932  2028 20156  2789 16434    88 0.004     9  6875  2261  0.04576.00 187.2  1.20  65.2  15.7  1.00  0.00  0.21  0.00  0.00   0.0  0.00  0.00  0.00
 2020  44   240   240  27.8 5.557 147.6 0.950  0.56  53.1 3.394 0.420 3.814 22315   933  2016 20213  2827 16454    85 0.004     9  6875  2279  0.04576.00 187.2  1.20  60.9  13.9  1.00  0.00  0.27  0.00  0.00   0.0  0.00  0.00  0.00
 2020  45   241   241  28.5 5.575 147.9 0.952  0.17  18.2 3.443 0.422 3.864 22322   933  2002 20241  2840 16468    79 0.004     9  6875  2296  0.04576.00 187.3  1.20  55.6  10.5  1.00  0.02  0.35  0.00  0.00   0.0  0.00  0.00  0.00
 2020  46   242   242  28.4 5.590 148.2 0.948  0.24  24.6 3.365 0.418 3.782 22314   933  1993 20243  2812 16499    78 0.003     8  6897  2313  0.04576.00 187.4  1.20  50.5   9.9  1.00  0.16  0.44  0.00  0.00   0.0  0.00  0.00  0.00
 2020  47   243   243  28.8 5.603 148.4 0.946  0.15  13.7 3.325 0.412 3.738 22293   933  1983 20233  2776 16523    77 0.003     8  6921  2330  0.04576.00 187.5  1.20  71.8  15.5  1.00  0.28  0.52  0.00  0.00   0.0  0.00  0.00  0.00
 2020  48   244   244  29.3 5.623 148.7 0.945  0.27  24.4 3.288 0.408 3.697 22285   933  1974 20234  2750 16551    77 0.003     8  6944  2347  0.04576.00 187.6  1.20  67.1  14.5  1.00  0.00  0.22  0.00  0.00   0.0  0.00  0.00  0.00
 2020  49   245   245  29.1 5.642 149.1 0.944  0.60  53.4 3.284 0.407 3.691 22314   933  1966 20270  2743 16593    79 0.003     8  6961  2363  0.04576.00 187.8  1.20  62.7  14.4  1.00  0.00  0.23  0.00  0.00   0.0  0.00  0.00  0.00
 2020  50   246   246  29.2 5.660 149.4 0.947  0.36  34.9 3.334 0.410 3.744 22339   934  1953 20310  2762 16615    75 0.003     8  6961  2380  0.04576.00 187.9  1.20  57.7  12.0  1.00  0.00  0.31  0.00  0.00   0.0  0.00  0.00  0.00
 2020  51   247   247  29.9 5.675 149.7 0.949  0.12  10.5 3.372 0.412 3.784 22333   934  1938 20326  2772 16621    69 0.003     8  6961  2397  0.04576.00 187.9  1.20  52.9  11.1  1.00  0.08  0.39  0.00  0.00   0.0  0.00  0.00  0.00
 2020  52   248   248  30.2 5.688 150.0 0.949  0.08   7.2 3.386 0.413 3.798 22325   934  1923 20339  2778 16628    63 0.003     7  6961  2413  0.03576.00 187.9  1.20  48.3  10.4  1.00  0.21  0.47  0.00  0.00   0.0  0.00  0.00  0.00
 2020  53   249   249  31.3 5.699 150.2 0.950  0.03   2.7 3.394 0.413 3.807 22313   934  1908 20348  2783 16631    57 0.003     6  6961  2429  0.03576.00 187.9  1.20  70.0  13.0  1.00  0.32  0.55  0.00  0.00   0.0  0.00  0.00  0.00
 2020  54   250   250  31.1 5.715 150.6 0.950  0.03   0.0 3.401 0.414 3.815 22297   934  1892 20354  2787 16634    51 0.002     6  6961  2446  0.03576.00 188.0  1.20  64.6  12.1  1.00  0.00  0.23  0.00  0.00   0.0  0.00  0.00  0.00
 2020  55   251   251  30.5 5.731 150.9 0.950  0.06   6.0 3.406 0.415 3.821 22288   934  1877 20365  2793 16637    46 0.002     5  6961  2462  0.02576.00 188.0  1.20  59.6  11.8  1.00  0.00  0.26  0.00  0.00   0.0  0.00  0.00  0.00
 2020  56   252   252  29.4 5.746 151.2 0.946  0.30  26.9 3.315 0.410 3.725 22283   934  1869 20365  2761 16670    49 0.002     5  6984  2478  0.02576.00 188.1  1.20  55.1  12.3  1.00  0.02  0.34  0.00  0.00   0.0  0.00  0.00  0.00
 2020  57   253   253  29.8 5.761 151.5 0.944  0.15  12.9 3.273 0.404 3.677 22262   934  1860 20351  2720 16696    51 0.002     5  7009  2494  0.02576.00 188.3  1.20  50.7  11.4  1.00  0.13  0.42  0.00  0.00   0.0  0.00  0.00  0.00
 2020  58   254   254  30.0 5.773 151.7 0.941  0.25  23.4 3.221 0.399 3.620 22252   934  1852 20346  2685 16727    54 0.002     5  7034  2509  0.03576.00 188.5  1.20  45.8   9.4  1.00  0.24  0.50  0.00  0.00   0.0  0.00  0.00  0.00
 2020  59   255   255  30.3 5.783 151.9 0.942  0.05   4.8 3.235 0.395 3.630 22233   934  1840 20340  2659 16747    53 0.002     5  7047  2525  0.03576.00 188.6  1.20  68.9  13.0  1.00  0.36  0.58  0.00  0.00   0.0  0.00  0.00  0.00
 2020  60   256   256  32.2 5.801 152.3 0.943  0.05   0.0 3.256 0.395 3.651 22218   934  1825 20345  2662 16749    48 0.002     5  7047  2541  0.03576.00 188.6  1.20  63.1  11.0  1.00  0.00  0.23  0.00  0.00   0.0  0.00  0.00  0.00
 2020  61   257   257  30.8 5.815 152.6 0.943  0.38  35.0 3.260 0.399 3.659 22241   934  1813 20382  2684 16763    46 0.002     5  7047  2556  0.02576.00 188.7  1.20  58.1  11.7  1.00  0.00  0.27  0.00  0.00   0.0  0.00  0.00  0.00
 2020  62   258   258  30.8 5.830 152.9 0.943  0.75  68.7 3.259 0.400 3.660 22295   935  1806 20440  2696 16809    50 0.002     5  7054  2572  0.02576.00 188.8  1.20  53.5  11.4  1.00  0.03  0.35  0.00  0.00   0.0  0.00  0.00  0.00
 2020  63   259   259  30.8 5.842 153.2 0.941  0.53  51.1 3.223 0.398 3.622 22323   935  1800 20468  2683 16850    55 0.002     5  7074  2587  0.02576.00 189.1  1.20  48.5   9.5  1.00  0.15  0.43  0.00  0.00   0.0  0.00  0.00  0.00
 2020  64   260   260  30.8 5.853 153.4 0.941  0.17  18.0 3.209 0.394 3.604 22314   935  1791 20467  2656 16876    56 0.003     5  7095  2602  0.03576.00 189.2  1.20  42.6   7.3  1.00  0.28  0.52  0.00  0.00   0.0  0.00  0.00  0.00
 2020  65   261   261  31.3 5.862 153.6 0.935  0.03   2.9 3.106 0.384 3.490 22273   935  1785 20429  2584 16910    59 0.003     6  7132  2617  0.03576.00 189.5  1.20  68.6  11.9  1.00  0.42  0.61  0.00  0.00   0.0  0.00  0.00  0.00
 2020  66   262   262  30.5 5.878 153.9 0.935  0.44  41.2 3.112 0.381 3.492 22292   935  1777 20453  2565 16952    61 0.003     6  7147  2632  0.03576.00 189.6  1.20  63.7  13.2  1.00  0.00  0.24  0.00  0.00   0.0  0.00  0.00  0.00
 2020  67   263   263  30.8 5.895 154.3 0.931  0.60  60.2 3.044 0.378 3.422 22324   936  1774 20483  2546 17001    67 0.003     6  7173  2647  0.03576.00 189.9  1.20  58.5  11.2  1.00  0.00  0.25  0.00  0.00   0.0  0.00  0.00  0.00
 2020  68   264   264  30.6 5.910 154.6 0.932  0.50  48.9 3.047 0.376 3.423 22347   936  1769 20507  2533 17039    70 0.003     7  7194  2662  0.03576.00 190.1  1.20  53.2  10.4  1.00  0.00  0.33  0.00  0.00   0.0  0.00  0.00  0.00
 2020  69   265   265  31.4 5.923 154.9 0.932  0.06   6.6 3.058 0.372 3.430 22329   936  1759 20503  2502 17065    68 0.003     7  7209  2677  0.03576.00 190.2  1.20  47.3   8.1  1.00  0.14  0.42  0.00  0.00   0.0  0.00  0.00  0.00
 2020  70   266   266  30.6 5.933 155.1 0.930  0.06   6.1 3.021 0.367 3.388 22310   936  1748 20496  2474 17086    65 0.003     7  7224  2692  0.03576.00 190.3  1.20  41.7   7.7  1.00  0.29  0.53  0.00  0.00   0.0  0.00  0.00  0.00
 2020  71   267   267  31.1 5.942 155.3 0.930  0.33  30.2 3.019 0.368 3.387 22323   936  1738 20521  2479 17106    64 0.003     7  7231  2706  0.03576.00 190.4  1.20  67.0  13.9  1.00  0.42  0.62  0.00  0.00   0.0  0.00  0.00  0.00
 2020  72   268   268  30.6 5.958 155.6 0.927  0.93  84.4 2.982 0.370 3.352 22387   936  1736 20582  2491 17155    69 0.003     6  7249  2721  0.03576.00 190.6  1.20  62.4  13.9  1.00  0.00  0.25  0.00  0.00   0.0  0.00  0.00  0.00
 2020  73   269   269  29.3 5.975 155.9 0.930  0.98  93.4 3.016 0.370 3.386 22465   937  1733 20657  2495 17225    75 0.003     7  7264  2736  0.03576.00 190.8  1.20  58.0  13.1  1.00  0.00  0.25  0.00  0.00   0.0  0.00  0.00  0.00
 2020  74   270   270  28.9 5.992 156.2 0.930  0.66  58.8 3.026 0.371 3.397 22501   937  1727 20697  2497 17263    77 0.003     7  7277  2750  0.04576.00 190.9  1.20  53.8  13.0  1.00  0.00  0.33  0.00  0.00   0.0  0.00  0.00  0.00
 2020  75   271   271  29.3 6.043 156.5 0.931  0.05   4.4 3.033 0.368 3.401 22483   937  1717 20693  2477 17279    73 0.003     8  7291  2765  0.04****** 190.9  1.20  48.9  10.3  1.00  0.10  0.40  0.00  0.00   0.0  0.00  0.00  0.00
 2020  76   272   272  30.3 6.056 156.7 0.930  0.01   0.9 3.014 0.364 3.378 22460   937  1705 20686  2451 17298    69 0.003     7  7302  2780  0.04****** 191.0  1.20  43.9   9.0  1.00  0.22  0.48  0.00  0.00   0.0  0.00  0.00  0.00
 2020  77   273   273  30.9 6.066 156.9 0.925  0.17  17.3 2.945 0.358 3.302 22449   937  1697 20684  2410 17337    68 0.003     7  7323  2794  0.03****** 191.1  1.20  65.1  12.0  1.00  0.35  0.57  0.00  0.00   0.0  0.00  0.00  0.00
 2020  78   274   274  31.3 6.082 157.2 0.922  0.49  46.0 2.901 0.354 3.255 22470   938  1692 20709  2384 17387    70 0.003     7  7342  2809  0.03****** 191.2  1.20  60.0  12.0  1.00  0.00  0.25  0.00  0.00   0.0  0.00  0.00  0.00
 2020  79   275   275  31.3 6.098 157.5 0.920  0.36  34.3 2.865 0.349 3.214 22478   938  1685 20722  2351 17434    71 0.003     7  7362  2823  0.03****** 191.3  1.20  54.7  10.6  1.00  0.00  0.28  0.00  0.00   0.0  0.00  0.00  0.00
 2020  80   276   276  30.2 6.111 157.8 0.918  0.73  73.9 2.848 0.352 3.200 22535   938  1681 20779  2373 17469    75 0.003     7  7376  2837  0.03****** 191.6  1.20  49.5   9.9  1.00  0.06  0.37  0.00  0.00   0.0  0.00  0.00  0.00
 2020  81   277   277  31.5 6.124 158.1 0.919  0.27  26.1 2.854 0.350 3.204 22532   938  1674 20783  2356 17489    75 0.003     7  7397  2852  0.04****** 191.8  1.20  44.3   8.5  1.00  0.19  0.46  0.00  0.00   0.0  0.00  0.00  0.00
 2020  82   278   278  30.5 6.133 158.3 0.914  0.50  47.9 2.786 0.347 3.133 22548   938  1671 20798  2334 17526    78 0.003     7  7425  2866  0.04****** 192.0  1.20  65.1  13.6  1.00  0.33  0.55  0.00  0.00   0.0  0.00  0.00  0.00
 2020  83   279   279  30.7 6.150 158.6 0.917  1.09 100.3 2.832 0.354 3.186 22630   938  1670 20876  2385 17553    84 0.004     8  7441  2880  0.04****** 192.4  1.20  66.6  14.5  1.00  0.00  0.24  0.00  0.00   0.0  0.00  0.00  0.00
 2020  84   280   280  28.7 6.168 158.9 0.923  1.59 154.8 2.913 0.369 3.282 22778   939  1674 21011  2483 17589    94 0.004     8  7454  2894  0.04****** 192.5  1.20  63.5  14.4  1.00  0.00  0.21  0.00  0.00   0.0  0.00  0.00  0.00
 2020  85   281   281  29.9 6.189 159.3 0.931  1.28 118.8 3.034 0.379 3.414 22879   939  1674 21105  2554 17612   100 0.004     9  7469  2908  0.04****** 192.8  1.20  59.2  13.7  1.00  0.00  0.22  0.00  0.00   0.0  0.00  0.00  0.00
 2020  86   282   282  30.1 6.206 159.6 0.934  1.24 126.4 3.095 0.388 3.483 22999   939  1675 21217  2613 17666   106 0.005    10  7483  2923  0.05****** 193.1  1.20  54.4  11.1  1.00  0.00  0.28  0.00  0.00   0.0  0.00  0.00  0.00
 2020  87   283   283  31.5 6.221 159.8 0.939  0.69  69.0 3.174 0.390 3.565 23041   939  1673 21259  2628 17692   108 0.005    11  7506  2937  0.05****** 193.4  1.20  49.0   9.2  1.00  0.05  0.37  0.00  0.00   0.0  0.00  0.00  0.00
 2020  88   284   284  31.3 6.232 160.1 0.940  0.63  62.5 3.196 0.391 3.586 23077   939  1671 21296  2630 17727   110 0.005    11  7531  2951  0.05****** 193.6  1.20  43.8   8.4  1.00  0.19  0.46  0.00  0.00   0.0  0.00  0.00  0.00
 2020  89   285   285  31.7 6.242 160.3 0.940  0.27  25.9 3.198 0.388 3.586 23076   939  1664 21306  2613 17753   106 0.005    11  7550  2965  0.05****** 193.7  1.20  64.0  12.2  1.00  0.32  0.55  0.00  0.00   0.0  0.00  0.00  0.00
 2020  90   286   286  31.8 6.257 160.6 0.940  0.94  90.9 3.190 0.393 3.584 23144   939  1664 21371  2647 17785   109 0.005    11  7572  2979  0.05****** 193.9  1.20  58.8  11.6  1.00  0.00  0.25  0.00  0.00   0.0  0.00  0.00  0.00
 2020  91   287   287  30.8 6.272 160.9 0.944  1.06  99.0 3.273 0.401 3.674 23226   939  1663 21452  2699 17814   111 0.005    11  7587  2994  0.05****** 194.2  1.20  74.2  15.9  1.00  0.00  0.28  0.00  0.00   0.0  0.00  0.00  0.00
 2020  92   288   288  30.0 6.291 161.3 0.947  1.28 123.3 3.347 0.411 3.758 23338   940  1664 21559  2767 17852   116 0.005    11  7600  3008  0.05****** 194.4  1.20  69.6  15.3  1.00  0.00  0.16  0.00  0.00   0.0  0.00  0.00  0.00
 2020  93   289   289  30.6 6.311 161.6 0.947  0.99 111.2 3.344 0.416 3.760 23441   940  1666 21654  2800 17913   121 0.005    12  7622  3022  0.05****** 194.6  1.20  63.9  11.1  1.00  0.00  0.15  0.00  0.00   0.0  0.00  0.00  0.00
 2020  94   290   290  31.2 6.328 161.9 0.953  0.91  87.0 3.475 0.421 3.896 23501   940  1664 21716  2835 17941   121 0.005    12  7638  3036  0.06****** 194.8  1.20  58.8  11.6  1.00  0.00  0.25  0.00  0.00   0.0  0.00  0.00  0.00
 2020  95   291   291  28.9 6.343 162.2 0.956  2.03 211.2 3.538 0.440 3.978 23711   940  1673 21906  2965 18000   133 0.006    12  7652  3050  0.06****** 194.8  1.20  54.0  11.1  1.00  0.00  0.33  0.00  0.00   0.0  0.00  0.00  0.00
 2020  96   292   292  30.6 6.358 162.5 0.960  0.89  99.4 3.651 0.446 4.096 23795   940  1675 21982  3002 18040   137 0.006    13  7678  3064  0.06****** 195.0  1.20  48.3   8.5  1.00  0.11  0.41  0.00  0.00   0.0  0.00  0.00  0.00
 2020  97   293   293  30.7 6.369 162.7 0.962  0.98 101.9 3.710 0.451 4.160 23869   941  1677 22053  3035 18077   139 0.006    14  7703  3079  0.06****** 195.2  1.20  69.6  13.7  1.00  0.25  0.50  0.00  0.00   0.0  0.00  0.00  0.00
 2020  98   294   294  30.8 6.387 163.0 0.963  0.63  68.4 3.731 0.451 4.183 23909   941  1676 22093  3040 18112   140 0.006    14  7734  3093  0.06****** 195.4  1.20  63.8  11.0  1.00  0.00  0.20  0.00  0.00   0.0  0.00  0.00  0.00
 2020  99   295   295  29.6 6.405 163.3 0.963  1.45 142.1 3.733 0.459 4.192 24022   941  1683 22192  3089 18162   147 0.006    14  7767  3107  0.06****** 195.5  1.20  59.1  12.6  1.00  0.00  0.22  0.00  0.00   0.0  0.00  0.00  0.00
 2020 100   296   296  29.5 6.422 163.6 0.965  1.58 150.7 3.796 0.467 4.263 24144   941  1691 22299  3142 18216   155 0.006    15  7800  3121  0.07****** 195.6  1.20  54.5  12.0  1.00  0.00  0.30  0.00  0.00   0.0  0.00  0.00  0.00
 2020 101   297   297  30.4 6.437 163.9 0.966  0.99 102.6 3.839 0.464 4.303 24219   941  1696 22363  3127 18295   160 0.007    15  7841  3136  0.07****** 195.8  1.20  73.6  14.0  1.00  0.06  0.37  0.00  0.00   0.0  0.00  0.00  0.00
 2020 102   298   298  28.5 6.457 164.2 0.966  1.96 193.4 3.832 0.474 4.306 24384   942  1708 22505  3190 18374   171 0.007    16  7878  3150  0.07****** 195.7  1.20  70.2  15.2  1.00  0.00  0.14  0.00  0.00   0.0  0.00  0.00  0.00
 2020 103   299   299  30.7 6.480 164.5 0.964  0.70  77.9 3.792 0.469 4.261 24435   942  1713 22547  3155 18450   174 0.007    17  7923  3165  0.08****** 195.8  1.20  64.4  11.0  1.00  0.00  0.14  0.00  0.00   0.0  0.00  0.00  0.00
 2020 104   300   300  31.5 6.498 164.9 0.966  0.65  65.9 3.832 0.464 4.296 24453   942  1716 22563  3127 18494   174 0.007    17  7970  3179  0.08****** 196.0  1.20  59.0  10.9  1.00  0.00  0.22  0.00  0.00   0.0  0.00  0.00  0.00
 2020 105   301   301  31.9 6.512 165.1 0.962  0.35  37.0 3.720 0.451 4.172 24431   942  1720 22536  3040 18554   176 0.007    17  8034  3194  0.08****** 196.2  1.20  53.0   8.9  1.00  0.00  0.31  0.00  0.00   0.0  0.00  0.00  0.00
 2020 106   302   302  31.9 6.524 165.4 0.958  0.62  59.1 3.609 0.441 4.050 24440   942  1723 22541  2973 18626   176 0.007    18  8086  3208  0.08****** 196.3  1.20  47.8   9.2  1.00  0.11  0.41  0.00  0.00   0.0  0.00  0.00  0.00
 2020 107   303   303  31.5 6.534 165.6 0.959  0.30  28.7 3.637 0.436 4.073 24428   943  1721 22537  2935 18659   171 0.007    18  8124  3223  0.08****** 196.4  1.20  42.7   8.3  1.00  0.24  0.49  0.00  0.00   0.0  0.00  0.00  0.00
 2020 108   304   304  30.9 6.543 165.8 0.957  0.63  65.0 3.564 0.432 3.996 24452   943  1723 22559  2912 18704   170 0.007    17  8169  3238  0.08****** 196.6  1.20  66.4  12.6  1.00  0.36  0.57  0.00  0.00   0.0  0.00  0.00  0.00
 2020 109   305   305  31.0 6.561 166.1 0.958  1.11  94.3 3.612 0.433 4.046 24514   943  1724 22622  2919 18760   168 0.007    17  8196  3252  0.08****** 196.7  1.20  62.1  14.5  1.00  0.00  0.22  0.00  0.00   0.0  0.00  0.00  0.00
 2020 110   306   306  30.0 6.578 166.4 0.954  1.14 107.1 3.489 0.427 3.917 24582   943  1732 22676  2878 18855   174 0.007    17  8248  3267  0.07****** 196.8  1.20  57.5  12.5  1.00  0.00  0.22  0.00  0.00   0.0  0.00  0.00  0.00
 2020 111   307   307  30.0 6.595 166.7 0.955  1.35 129.6 3.516 0.431 3.947 24680   943  1739 22762  2905 18914   179 0.007    17  8288  3282  0.08****** 197.0  1.20  52.9  11.6  1.00  0.00  0.30  0.00  0.00   0.0  0.00  0.00  0.00
 2020 112   308   308  31.3 6.609 166.9 0.959  0.69  66.5 3.617 0.430 4.047 24720   944  1737 22807  2894 18970   175 0.007    18  8313  3297  0.08****** 197.1  1.20  47.7   9.3  1.00  0.07  0.38  0.00  0.00   0.0  0.00  0.00  0.00
 2020 113   309   309  30.7 6.621 167.1 0.955  0.88  79.7 3.521 0.426 3.947 24756   944  1741 22840  2870 19027   175 0.007    17  8358  3311  0.08****** 197.2  1.20  43.1   9.4  1.00  0.20  0.47  0.00  0.00   0.0  0.00  0.00  0.00
 2020 114   310   310  30.1 6.631 167.3 0.956  0.96  93.9 3.552 0.429 3.981 24825   944  1743 22907  2889 19074   175 0.007    18  8389  3326  0.08****** 197.3  1.20  65.1  13.7  1.00  0.32  0.55  0.00  0.00   0.0  0.00  0.00  0.00
 2020 115   311   311  30.4 6.649 167.6 0.958  1.41 139.3 3.591 0.437 4.028 24941   944  1748 23015  2941 19130   177 0.007    17  8417  3341  0.08****** 197.5  1.20  60.3  12.7  1.00  0.00  0.22  0.00  0.00   0.0  0.00  0.00  0.00
 2020 116   312   312  30.5 6.667 167.9 0.958  1.27 118.7 3.592 0.433 4.025 25019   944  1755 23082  2915 19223   181 0.007    18  8462  3356  0.08****** 197.6  1.20  59.7  13.1  1.00  0.00  0.24  0.00  0.00   0.0  0.00  0.00  0.00
 2020 117   313   313  29.8 6.684 168.2 0.959  1.35 133.1 3.621 0.439 4.060 25130   945  1761 23186  2956 19285   184 0.007    18  8492  3371  0.08****** 197.6  1.20  59.7  12.7  1.00  0.00  0.25  0.00  0.00   0.0  0.00  0.00  0.00
 2020 118   314   314  29.5 6.702 168.5 0.961  1.74 156.9 3.679 0.447 4.127 25258   945  1767 23304  3013 19346   188 0.007    18  8522  3386  0.08****** 197.6  1.20  55.5  13.0  1.00  0.00  0.26  0.00  0.00   0.0  0.00  0.00  0.00
 2020 119   315   315  30.4 6.719 168.8 0.959  1.05 104.8 3.642 0.440 4.082 25325   945  1776 23356  2961 19450   193 0.008    19  8577  3401  0.08****** 197.7  1.20  50.6  10.3  1.00  0.00  0.31  0.00  0.00   0.0  0.00  0.00  0.00
 2020 120   316   316  31.6 6.733 169.0 0.960  0.92  87.2 3.661 0.436 4.097 25376   945  1778 23407  2938 19524   191 0.007    19  8612  3416  0.08****** 197.8  1.20  49.9  10.1  1.00  0.10  0.40  0.00  0.00   0.0  0.00  0.00  0.00
 2020 121   317   317  29.9 6.746 169.2 0.950  1.39 130.5 3.409 0.420 3.829 25437   946  1794 23439  2831 19663   203 0.008    19  8698  3431  0.08****** 197.9  1.20  58.1  12.9  1.00  0.10  0.40  0.00  0.00   0.0  0.00  0.00  0.00
 2020 122   318   318  29.9 6.763 169.5 0.948  1.35 131.9 3.359 0.417 3.776 25518   946  1807 23499  2810 19743   212 0.008    20  8764  3446  0.09****** 198.0  1.20  62.6  13.4  1.00  0.00  0.27  0.00  0.00   0.0  0.00  0.00  0.00
 2020 123   319   319  29.8 6.782 169.8 0.950  1.34 128.4 3.416 0.413 3.829 25606   946  1815 23576  2782 19848   215 0.008    21  8811  3462  0.09****** 198.1  1.20  58.1  12.8  1.00  0.00  0.22  0.00  0.00   0.0  0.00  0.00  0.00
 2020 124   320   320  28.6 6.800 170.1 0.952  1.77 165.6 3.459 0.420 3.879 25749   947  1823 23709  2828 19935   217 0.008    22  8840  3477  0.09****** 197.9  1.20  58.8  13.5  1.00  0.00  0.26  0.00  0.00   0.0  0.00  0.00  0.00
 2020 125   321   321  29.0 6.819 170.3 0.952  1.64 165.3 3.453 0.424 3.876 25896   947  1832 23844  2853 20044   220 0.008    22  8874  3492  0.09****** 197.8  1.20  57.3  12.2  1.00  0.00  0.26  0.00  0.00   0.0  0.00  0.00  0.00
 2020 126   322   322  30.1 6.838 170.6 0.955  1.23 120.2 3.517 0.427 3.944 25983   947  1837 23927  2876 20104   219 0.008    22  8910  3508  0.09****** 197.9  1.20  52.5  11.0  1.00  0.00  0.28  0.00  0.00   0.0  0.00  0.00  0.00
 2020 127   323   323  30.6 6.853 170.9 0.956  1.21 116.8 3.547 0.430 3.977 26067   947  1841 24008  2897 20164   217 0.008    22  8947  3524  0.09****** 198.0  1.20  47.6   9.8  1.00  0.03  0.35  0.00  0.00   0.0  0.00  0.00  0.00
 2020 128   324   324  29.9 6.866 171.1 0.953  1.33 118.3 3.469 0.423 3.892 26129   948  1851 24057  2851 20258   221 0.008    22  9008  3539  0.09****** 198.1  1.20  43.4  10.2  1.00  0.16  0.44  0.00  0.00   0.0  0.00  0.00  0.00
 2020 129   325   325  29.3 6.878 171.3 0.952  1.35 113.9 3.451 0.421 3.872 26206   948  1855 24131  2835 20349   219 0.008    22  9046  3555  0.09****** 198.0  1.20  39.4   9.9  1.00  0.27  0.51  0.00  0.00   0.0  0.00  0.00  0.00
 2020 130   326   326  28.5 6.888 171.4 0.954  1.04 109.6 3.493 0.425 3.918 26298   948  1861 24219  2860 20411   218 0.008    22  9083  3571  0.09****** 197.8  1.20  69.2  14.1  1.00  0.38  0.59  0.00  0.00   0.0  0.00  0.00  0.00
 2020 131   327   327  29.5 6.910 171.7 0.953  2.06 187.3 3.464 0.423 3.887 26440   948  1874 24341  2849 20544   225 0.008    22  9133  3587  0.09****** 197.8  1.20  69.8  16.2  1.00  0.00  0.16  0.00  0.00   0.0  0.00  0.00  0.00
 2020 132   328   328  29.1 6.932 172.0 0.956  1.91 174.0 3.540 0.428 3.969 26593   949  1882 24483  2885 20649   228 0.008    23  9163  3603  0.09****** 197.7  1.20  66.1  15.5  1.00  0.00  0.14  0.00  0.00   0.0  0.00  0.00  0.00
 2020 133   329   329  29.4 6.954 172.3 0.957  1.61 146.7 3.572 0.431 4.003 26715   949  1888 24600  2902 20749   227 0.008    23  9193  3619  0.09****** 197.7  1.20  61.8  14.3  1.00  0.00  0.14  0.00  0.00   0.0  0.00  0.00  0.00
 2020 134   330   330  28.5 6.973 172.6 0.953  2.03 193.9 3.470 0.435 3.905 26868   949  1905 24726  2930 20847   237 0.009    23  9255  3635  0.09****** 197.4  1.20  58.7  13.2  1.00  0.00  0.21  0.00  0.00   0.0  0.00  0.00  0.00
 2020 135   331   331  29.8 6.993 172.9 0.958  1.35 130.5 3.601 0.439 4.040 26967   949  1911 24820  2956 20914   237 0.009    24  9293  3651  0.10****** 197.5  1.20  54.1  11.7  1.00  0.00  0.26  0.00  0.00   0.0  0.00  0.00  0.00
 2020 136   332   332  29.6 7.050 173.1 0.959  1.37 125.1 3.635 0.440 4.075 27055   950  1916 24905  2961 20994   234 0.009    24  9332  3667  0.10****** 197.5  1.20  61.1  14.0  1.00  0.00  0.34  0.00  0.00   0.0  0.00  0.00  0.00
 2020 137   333   333  30.0 7.069 173.4 0.950  1.44 132.6 3.399 0.425 3.823 27122   950  1931 24949  2859 21140   242 0.009    23  9413  3683  0.09****** 197.6  1.20  57.2  12.9  1.00  0.00  0.22  0.00  0.00   0.0  0.00  0.00  0.00
 2020 138   334   334  30.9 7.087 173.7 0.949  1.20 110.3 3.386 0.417 3.803 27186   950  1938 25005  2806 21249   242 0.009    24  9467  3700  0.10****** 197.7  1.20  52.5  11.3  1.00  0.00  0.26  0.00  0.00   0.0  0.00  0.00  0.00
 2020 139   335   335  30.4 7.101 173.9 0.946  1.46 120.5 3.312 0.409 3.721 27254   951  1946 25065  2753 21362   242 0.009    24  9522  3716  0.10****** 197.9  1.20  49.6  12.6  1.00  0.02  0.34  0.00  0.00   0.0  0.00  0.00  0.00
 2020 140   336   336  29.4 7.115 174.1 0.947  1.59 140.4 3.346 0.421 3.766 27372   951  1952 25180  2832 21398   240 0.009    24  9554  3733  0.10****** 197.8  1.20  45.5  11.0  1.00  0.09  0.39  0.00  0.00   0.0  0.00  0.00  0.00
 2020 141   337   337  29.4 7.129 174.3 0.954  1.53 131.8 3.496 0.436 3.932 27500   951  1949 25320  2939 21431   230 0.008    24  9554  3749  0.09****** 197.8  1.20  48.9  12.1  1.00  0.20  0.47  0.00  0.00   0.0  0.00  0.00  0.00
 2020 142   338   338  29.4 7.143 174.5 0.950  1.37 117.2 3.407 0.438 3.845 27571   951  1957 25385  2947 21488   230 0.008    23  9606  3766  0.09****** 197.7  1.20  83.4  20.7  1.00  0.12  0.41  0.00  0.00   0.0  0.00  0.00  0.00
 2020 143   339   339  29.8 7.167 174.9 0.951  1.40 115.7 3.434 0.439 3.874 27643   951  1963 25451  2958 21542   229 0.008    23  9654  3783  0.09****** 197.8  1.20  87.9  22.4  1.00  0.00  0.05  0.00  0.00   0.0  0.00  0.00  0.00
[...]
 2020 125   321   321  29.0 2.220 172.9 0.606  1.64 104.3 1.058 0.121 1.180 26857  1193   521 11240   818  9229 15096 0.558  1503  1621  1125 13.37 16.00 197.4  1.20  79.9  29.0  1.00  0.00  0.04  0.00  0.00   0.0  0.00  0.00  0.00
 2020 126   322   322  30.1 2.226 173.3 0.612  1.23  76.5 1.076 0.125 1.201 26932  1194   522 11285   838  9253 15125 0.558  1510  1622  1129 13.38 16.00 197.5  1.20  75.3  26.6  1.00  0.00  0.05  0.00  0.00   0.0  0.00  0.00  0.00
 2020 127   323   323  30.6 2.232 173.6 0.617  1.24  76.9 1.092 0.125 1.216 27006  1196   521 11312   841  9276 15173 0.558  1513  1624  1134 13.37 16.00 197.5  1.20  70.9  24.7  1.00  0.00  0.10  0.00  0.00   0.0  0.00  0.00  0.00
 2020 128   324   324  29.9 2.237 173.9 0.622  1.58  90.6 1.106 0.127 1.232 27092  1197   521 11349   853  9299 15223 0.558  1517  1626  1138 13.37 16.00 197.5  1.20  67.2  26.6  1.00  0.00  0.17  0.00  0.00   0.0  0.00  0.00  0.00
 2020 129   325   325  29.3 2.241 174.2 0.628  1.86 102.2 1.123 0.130 1.253 27191  1198   521 11393   873  9322 15278 0.558  1522  1627  1143 13.36 16.00 197.5  1.20  63.6  26.5  1.00  0.00  0.23  0.00  0.00   0.0  0.00  0.00  0.00
 2020 130   326   326  28.5 2.246 174.4 0.633  1.69 117.0 1.141 0.130 1.271 27319  1200   520 11422   877  9345 15378 0.559  1528  1628  1147 13.38 16.00 197.5  1.20  66.4  22.2  1.00  0.00  0.29  0.00  0.00   0.0  0.00  0.00  0.00
 2020 131   327   327  29.5 2.251 174.7 0.639  2.06 124.4 1.158 0.133 1.291 27435  1201   520 11462   893  9367 15454 0.560  1538  1629  1152 13.42 16.00 197.5  1.20  67.7  25.5  1.00  0.00  0.23  0.00  0.00   0.0  0.00  0.00  0.00
 2020 132   328   328  29.1 2.256 175.0 0.646  1.91 116.7 1.181 0.135 1.316 27553  1203   519 11503   910  9390 15530 0.560  1545  1629  1156 13.44 16.00 197.5  1.20  64.2  24.0  1.00  0.00  0.21  0.00  0.00   0.0  0.00  0.00  0.00
 2020 133   329   329  29.4 2.260 175.3 0.653  1.61  99.2 1.204 0.138 1.341 27652  1204   519 11544   927  9413 15589 0.560  1553  1629  1160 13.45 16.00 197.5  1.20  60.1  22.1  1.00  0.00  0.24  0.00  0.00   0.0  0.00  0.00  0.00
 2020 134   330   330  28.5 2.265 175.5 0.657  2.03 132.4 1.215 0.139 1.354 27786  1206   518 11576   935  9435 15692 0.561  1559  1629  1165 13.47 16.00 197.4  1.20  57.6  20.4  1.00  0.00  0.32  0.00  0.00   0.0  0.00  0.00  0.00
 2020 135   331   331  29.8 2.269 175.7 0.663  1.31  87.3 1.236 0.141 1.377 27874  1207   517 11616   951  9458 15740 0.561  1569  1629  1169 13.51 16.00 197.5  1.20  53.3  18.0  1.00  0.03  0.35  0.00  0.00   0.0  0.00  0.00  0.00
 2020 136   332   332  29.6 2.272 175.9 0.663  1.18  74.6 1.235 0.140 1.375 27940  1208   516 11631   942  9481 15793 0.562  1574  1634  1174 13.53 16.00 197.5  1.20  61.0  21.8  1.00  0.14  0.43  0.00  0.00   0.0  0.00  0.00  0.00
 2020 137   333   333  30.0 2.277 176.2 0.659  1.44  91.6 1.222 0.139 1.362 28026  1210   516 11650   938  9503 15860 0.562  1579  1639  1178 13.56 16.00 197.5  1.20  57.5  20.2  1.00  0.00  0.29  0.00  0.00   0.0  0.00  0.00  0.00
 2020 138   334   334  30.9 2.281 176.4 0.653  1.20  76.5 1.202 0.137 1.339 28094  1211   514 11659   922  9525 15921 0.563  1586  1647  1182 13.60 16.00 197.5  1.20  53.0  17.5  1.00  0.00  0.33  0.00  0.00   0.0  0.00  0.00  0.00
 2020 139   335   335  30.4 2.284 176.6 0.648  1.31  74.4 1.187 0.136 1.323 28157  1213   514 11674   914  9548 15969 0.564  1592  1654  1187 13.64 16.00 197.6  1.20  50.8  20.0  1.00  0.12  0.41  0.00  0.00   0.0  0.00  0.00  0.00
 2020 140   336   336  29.4 2.287 176.8 0.649  1.44  87.1 1.189 0.135 1.323 28240  1214   513 11690   906  9570 16037 0.564  1597  1659  1191 13.66 16.00 197.6  1.20  47.1  17.8  1.00  0.17  0.45  0.00  0.00   0.0  0.00  0.00  0.00
 2020 141   337   337  29.4 2.290 177.0 0.645  1.39  82.2 1.178 0.133 1.312 28315  1215   512 11706   899  9592 16098 0.565  1604  1664  1195 13.70 16.00 197.6  1.20  78.7  30.6  1.00  0.27  0.51  0.00  0.00   0.0  0.00  0.00  0.00
 2020 142   338   338  29.4 2.296 177.3 0.644  1.56  89.9 1.173 0.134 1.307 28400  1217   511 11733   902  9614 16156 0.565  1610  1667  1200 13.72 16.00 197.6  1.20 111.6  44.0  1.00  0.00  0.10  0.00  0.00   0.0  0.00  0.00  0.00
 2020 143   339   339  29.8 2.302 177.6 0.641  1.40  78.4 1.165 0.133 1.298 28472  1218   510 11749   896  9636 16212 0.566  1616  1672  1204 13.75 16.00 197.6  1.20 116.3  46.8  1.00  0.00  0.00  0.00  0.00   0.0  0.00  0.00  0.00
 2020 144   340   340  30.4 2.308 178.0 0.641  1.40  85.9 1.166 0.132 1.298 28556  1220   509 11766   889  9658 16281 0.567  1621  1676  1208 13.78 16.00 197.6  1.20 115.7  42.0  1.00  0.00  0.00  0.00  0.00   0.0  0.00  0.00  0.00
 2020 145   341   341  28.2 2.314 178.3 0.639  2.22 128.4 1.159 0.132 1.291 28677  1221   508 11792   891  9679 16377 0.568  1628  1680  1213 13.81 16.00 197.5  1.20 122.8  49.6  1.00  0.00  0.00  0.00  0.00   0.0  0.00  0.00  0.00
 2020 146   342   342  28.1 2.321 178.6 0.641  1.98 115.3 1.163 0.133 1.296 28790  1222   507 11819   895  9701 16464 0.568  1638  1682  1217 13.86 16.00 197.4  1.20 119.3  47.7  1.00  0.00  0.00  0.00  0.00   0.0  0.00  0.00  0.00
 2020 147   343   343  30.4 2.328 178.9 0.642  1.47  88.4 1.167 0.133 1.301 28877  1224   507 11845   899  9723 16525 0.569  1646  1685  1221 13.90 16.00 197.5  1.20 115.5  42.8  1.00  0.00  0.00  0.00  0.00   0.0  0.00  0.00  0.00
 2020 148   344   344  29.5 2.333 179.3 0.643  1.73  97.2 1.170 0.135 1.305 28967  1225   507 11877   908  9745 16583 0.569  1652  1689  1226 13.91 16.00 197.5  1.20 112.0  45.4  1.00  0.00  0.00  0.00  0.00   0.0  0.00  0.00  0.00
 2020 149   345   345  28.3 2.340 179.6 0.644  2.10 135.4 1.175 0.134 1.309 29105  1226   506 11895   903  9766 16703 0.570  1658  1693  1230 13.94 16.00 197.4  1.20 135.1  48.6  1.00  0.00  0.00  0.00  0.00   0.0  0.00  0.00  0.00
 2020 150   346   346  28.6 2.346 179.9 0.642  1.99 124.0 1.168 0.134 1.302 29220  1228   506 11915   899  9788 16799 0.571  1670  1699  1234 14.02 16.00 197.4  1.20 141.2  52.3  1.00  0.00  0.00  0.00  0.00   0.0  0.00  0.00  0.00
 2020 151   347   347  29.2 2.353 180.2 0.642  1.74 101.6 1.168 0.134 1.302 29313  1229   506 11943   905  9809 16865 0.572  1680  1704  1239 14.07 16.00 197.4  1.20 138.8  54.2  1.00  0.00  0.00  0.00  0.00   0.0  0.00  0.00  0.00
 2020 152   348   348  30.0 2.359 180.6 0.643  1.66 100.5 1.170 0.133 1.304 29410  1230   504 11959   898  9830 16946 0.573  1686  1708  1243 14.10 16.00 197.4  1.20 136.2  50.7  1.00  0.00  0.00  0.00  0.00   0.0  0.00  0.00  0.00
 2020 153   349   349  26.3 2.365 180.8 0.641  2.80 150.3 1.165 0.133 1.298 29549  1232   504 11981   898  9852 17063 0.574  1695  1714  1247 14.14 16.00 197.1  1.20 186.8  84.3  1.00  0.00  0.00  0.00  0.00   0.0  0.00  0.00  0.00
 2020 154   350   350  28.0 2.373 181.1 0.638  2.21 141.8 1.156 0.133 1.289 29698  1233   504 12001   895  9873 17193 0.575  1706  1720  1252 14.22 16.00 197.0  1.20 181.2  66.1  1.00  0.00  0.00  0.00  0.00   0.0  0.00  0.00  0.00
 2020 155   351   351  29.0 2.380 181.4 0.639  2.18 136.8 1.158 0.133 1.292 29829  1234   504 12025   897  9894 17300 0.577  1719  1725  1256 14.30 16.00 197.0  1.20 174.9  63.9  1.00  0.00  0.00  0.00  0.00   0.0  0.00  0.00  0.00
 2020 156   352   352  28.2 2.386 181.7 0.642  1.70 100.4 1.166 0.134 1.300 29921  1236   503 12050   900  9915 17367 0.577  1730  1729  1260 14.36 16.00 196.9  1.20 160.4  63.0  1.00  0.00  0.00  0.00  0.00   0.0  0.00  0.00  0.00
 2020 157   353   353  29.1 2.393 182.1 0.640  1.70 107.4 1.160 0.133 1.294 30026  1237   503 12070   897  9936 17453 0.578  1737  1734  1264 14.39 16.00 196.9  1.20 155.8  56.3  1.00  0.00  0.00  0.00  0.00   0.0  0.00  0.00  0.00
 2020 158   354   354  27.6 2.399 182.3 0.641  2.05 108.7 1.165 0.134 1.299 30122  1238   502 12097   901  9957 17523 0.578  1745  1738  1269 14.43 16.00 196.8  1.20 155.1  68.7  1.00  0.00  0.00  0.00  0.00   0.0  0.00  0.00  0.00
 2020 159   355   355  28.0 2.406 182.6 0.643  1.87 117.1 1.171 0.134 1.306 30244  1239   502 12122   905  9978 17620 0.579  1752  1742  1273 14.46 16.00 196.7  1.20 151.0  56.3  1.00  0.00  0.00  0.00  0.00   0.0  0.00  0.00  0.00
 2020 160   356   356  27.9 2.413 182.9 0.645  2.01 116.0 1.175 0.135 1.310 30352  1241   502 12148   908  9999 17702 0.580  1762  1746  1277 14.50 16.00 196.6  1.20 166.7  67.9  1.00  0.00  0.00  0.00  0.00   0.0  0.00  0.00  0.00
 2020 161   357   357  28.0 2.420 183.2 0.647  1.77 104.9 1.183 0.137 1.320 30455  1242   502 12182   920 10020 17772 0.580  1770  1748  1281 14.53 16.00 196.4  1.20 158.6  62.2  1.00  0.00  0.00  0.00  0.00   0.0  0.00  0.00  0.00
 2020 162   358   358  28.2 2.427 183.5 0.648  1.86 110.3 1.186 0.136 1.322 30560  1243   500 12199   915 10040 17861 0.581  1777  1752  1286 14.57 16.00 196.4  1.20 155.3  61.1  1.00  0.00  0.00  0.00  0.00   0.0  0.00  0.00  0.00
 2020 163   359   359  26.5 2.434 183.8 0.649  2.32 127.5 1.189 0.137 1.326 30680  1245   500 12226   920 10061 17955 0.582  1786  1756  1290 14.61 16.00 196.2  1.20 152.0  66.3  1.00  0.00  0.00  0.00  0.00   0.0  0.00  0.00  0.00
 2020 164   360   360  27.2 2.442 184.0 0.649  2.27 133.5 1.189 0.137 1.326 30813  1246   500 12250   922 10082 18064 0.583  1795  1760  1294 14.66 16.00 196.0  1.20 148.3  59.9  1.00  0.00  0.00  0.00  0.00   0.0  0.00  0.00  0.00
 2020 165   361   361  27.3 2.449 184.3 0.645  2.24 125.6 1.177 0.136 1.312 30928  1247   499 12262   913 10102 18166 0.584  1806  1768  1298 14.73 16.00 195.9  1.20 180.7  76.2  1.00  0.00  0.00  0.00  0.00   0.0  0.00  0.00  0.00
 2020 166   362   362  27.9 2.456 184.6 0.644  2.13 122.1 1.173 0.135 1.309 31045  1248   499 12281   910 10123 18266 0.585  1817  1773  1303 14.79 16.00 195.8  1.20 163.1  66.4  1.00  0.00  0.00  0.00  0.00   0.0  0.00  0.00  0.00
 2020 167   363   363  29.2 2.463 184.9 0.644  1.95 110.5 1.173 0.135 1.308 31150  1250   498 12302   909 10143 18350 0.586  1827  1778  1307 14.85 16.00 195.8  1.20 158.5  64.2  1.00  0.00  0.00  0.00  0.00   0.0  0.00  0.00  0.00
 2020 168   364   364  28.6 2.469 185.2 0.639  1.93 119.3 1.159 0.134 1.293 31266  1251   498 12318   903 10163 18451 0.587  1835  1786  1311 14.90 16.00 195.8  1.20 154.7  58.0  1.00  0.00  0.00  0.00  0.00   0.0  0.00  0.00  0.00
 2020 169   365   365  28.5 2.476 185.5 0.640  1.64  82.7 1.160 0.133 1.294 31333  1252   497 12333   897 10184 18503 0.587  1845  1790  1315 14.96 16.00 195.8  1.20 153.5  70.5  1.00  0.00  0.00  0.00  0.00   0.0  0.00  0.00  0.00
 2020 170   366   366  27.0 2.483 185.7 0.640  2.26 130.7 1.162 0.134 1.296 31466  1253   496 12359   902 10204 18611 0.588  1850  1793  1320 14.97 16.00 195.6  1.20 153.9  63.4  1.00  0.00  0.00  0.00  0.00   0.0  0.00  0.00  0.00
 2020 171   367   367  28.0 2.490 186.0 0.642  2.15 130.0 1.166 0.134 1.300 31595  1255   496 12384   906 10224 18715 0.589  1861  1797  1324 15.03 16.00 195.5  1.20 150.9  58.4  1.00  0.00  0.00  0.00  0.00   0.0  0.00  0.00  0.00
 2020 172   368   368  28.2 2.497 186.3 0.641  2.07 127.0 1.164 0.134 1.298 31717  1256   495 12404   904 10244 18818 0.590  1871  1802  1328 15.09 16.00 195.5  1.20 147.0  56.0  1.00  0.00  0.00  0.00  0.00   0.0  0.00  0.00  0.00
 2020 173   369   369  27.6 2.504 186.6 0.642  2.54 129.3 1.167 0.135 1.302 31831  1257   494 12428   906 10264 18909 0.591  1882  1805  1332 15.14 16.00 195.4  1.20 145.2  67.6  1.00  0.00  0.00  0.00  0.00   0.0  0.00  0.00  0.00
 2020 174   370   370  26.6 2.511 186.8 0.643  2.40 142.3 1.171 0.135 1.306 31980  1258   494 12452   910 10284 19034 0.592  1891  1809  1336 15.19 16.00 195.2  1.20 148.2  60.0  1.00  0.00  0.00  0.00  0.00   0.0  0.00  0.00  0.00
 2020 175   371   371  27.5 2.518 187.1 0.641  2.28 140.2 1.165 0.135 1.300 32117  1260   494 12472   909 10304 19151 0.593  1903  1815  1341 15.26 16.00 195.1  1.20 144.4  55.6  1.00  0.00  0.00  0.00  0.00   0.0  0.00  0.00  0.00
 2020 176   372   372  26.8 2.526 187.3 0.640  2.36 128.9 1.160 0.133 1.293 32231  1261   492 12482   898 10324 19256 0.594  1915  1820  1345 15.34 16.00 195.0  1.20 143.8  63.3  1.00  0.00  0.00  0.00  0.00   0.0  0.00  0.00  0.00
 2020 177   373   373  27.2 2.533 187.6 0.639  2.00 120.1 1.156 0.134 1.290 32353  1262   492 12506   900 10343 19356 0.595  1926  1824  1349 15.40 16.00 194.9  1.20 140.1  55.3  1.00  0.00  0.00  0.00  0.00   0.0  0.00  0.00  0.00
 2020 178   374   374  26.5 2.540 187.9 0.640  2.76 149.6 1.160 0.134 1.294 32493  1263   491 12530   904 10363 19472 0.596  1936  1828  1353 15.45 16.00 194.7  1.20 136.8  61.1  1.00  0.00  0.00  0.00  0.00   0.0  0.00  0.00  0.00
 2020 179   375   375  27.4 2.548 188.1 0.637  2.46 136.8 1.150 0.134 1.284 32625  1264   491 12547   900 10383 19587 0.597  1947  1834  1357 15.52 16.00 194.6  1.20 133.3  57.2  1.00  0.00  0.00  0.00  0.00   0.0  0.00  0.00  0.00
 2020 180   376   376  26.6 2.555 188.4 0.637  2.55 144.3 1.150 0.133 1.283 32765  1266   490 12561   893 10402 19714 0.598  1959  1838  1361 15.59 16.00 194.5  1.20 139.9  59.7  1.00  0.00  0.00  0.00  0.00   0.0  0.00  0.00  0.00
 2020 181   377   377  26.0 2.563 188.6 0.636  2.83 135.9 1.149 0.133 1.282 32886  1267   489 12586   897 10422 19811 0.599  1971  1842  1365 15.66 16.00 194.3  1.20 139.7  71.0  1.00  0.00  0.00  0.00  0.00   0.0  0.00  0.00  0.00
 2020 182   378   378  27.2 2.571 188.8 0.637  2.26 114.9 1.151 0.134 1.285 33001  1268   489 12609   899 10441 19903 0.600  1981  1845  1369 15.71 16.00 194.2  1.20 141.3  65.9  1.00  0.00  0.00  0.00  0.00   0.0  0.00  0.00  0.00
 2020 183   379   379  28.1 2.578 189.1 0.634  2.06 114.7 1.141 0.133 1.274 33114  1269   489 12625   895 10461 20001 0.601  1990  1852  1373 15.77 16.00 194.2  1.20 137.9  57.7  1.00  0.00  0.00  0.00  0.00   0.0  0.00  0.00  0.00
 2020 184   380   380  28.5 2.585 189.4 0.634  2.11 117.8 1.143 0.132 1.275 33227  1270   487 12639   889 10480 20100 0.602  2000  1856  1377 15.82 16.00 194.1  1.20 134.5  56.2  1.00  0.00  0.00  0.00  0.00   0.0  0.00  0.00  0.00
 2020 185   381   381  26.7 2.591 189.6 0.634  2.62 136.0 1.141 0.132 1.273 33355  1272   487 12663   892 10499 20205 0.603  2010  1859  1381 15.87 16.00 194.0  1.20 152.3  70.8  1.00  0.00  0.00  0.00  0.00   0.0  0.00  0.00  0.00
 2020 186   382   382  25.2 2.599 189.9 0.635  2.96 152.9 1.146 0.133 1.279 33504  1273   486 12688   897 10518 20329 0.604  2021  1862  1385 15.92 16.00 193.7  1.20 153.5  73.7  1.00  0.00  0.00  0.00  0.00   0.0  0.00  0.00  0.00
 2020 187   383   383  26.8 2.607 190.1 0.633  2.27 117.0 1.138 0.133 1.271 33614  1274   486 12706   894 10537 20422 0.604  2033  1868  1389 16.00 16.00 193.6  1.20 152.4  71.1  1.00  0.00  0.00  0.00  0.00   0.0  0.00  0.00  0.00
 2020 188   384   384  27.3 2.615 190.3 0.634  2.31 129.2 1.142 0.132 1.274 33744  1275   485 12722   890 10556 20537 0.605  2042  1872  1393 16.05 16.00 193.6  1.20 149.2  63.5  1.00  0.00  0.00  0.00  0.00   0.0  0.00  0.00  0.00
 2020 189   385   385  26.6 2.622 190.6 0.633  2.55 140.5 1.140 0.133 1.273 33880  1276   484 12746   894 10575 20650 0.606  2054  1875  1397 16.11 16.00 193.4  1.20 149.1  65.4  1.00  0.00  0.00  0.00  0.00   0.0  0.00  0.00  0.00
 2020 190   386   386  27.0 2.629 190.8 0.633  2.39 132.5 1.139 0.133 1.272 34008  1278   484 12765   893 10594 20758 0.607  2065  1879  1401 16.18 16.00 193.3  1.20 145.6  62.9  1.00  0.00  0.00  0.00  0.00   0.0  0.00  0.00  0.00
 2020 191   387   387  27.0 2.637 191.1 0.630  2.37 125.9 1.131 0.132 1.263 34125  1279   484 12782   890 10613 20859 0.608  2076  1885  1405 16.24 16.00 193.2  1.20 142.3  64.3  1.00  0.00  0.00  0.00  0.00   0.0  0.00  0.00  0.00
 2020 192   388   388  24.8 2.644 191.3 0.632  3.08 166.8 1.137 0.132 1.269 34289  1280   482 12800   888 10632 21007 0.609  2086  1888  1409 16.30 16.00 193.1  1.20 188.3  87.3  1.00  0.00  0.00  0.00  0.00   0.0  0.01  0.00  0.00
 2020 193   389   389  25.5 2.652 191.5 0.632  2.77 143.5 1.135 0.133 1.268 34425  1281   482 12824   892 10651 21119 0.610  2101  1891  1413 16.38 16.00 192.9  1.20 179.0  85.1  1.00  0.00  0.00  0.00  0.00   0.0  0.00  0.00  0.00
 2020 194   390   390  26.5 2.660 191.7 0.632  2.71 143.6 1.135 0.133 1.268 34566  1282   482 12844   893 10669 21240 0.611  2112  1895  1417 16.44 16.00 192.7  1.20 162.4  74.1  1.00  0.00  0.00  0.00  0.00   0.0  0.00  0.00  0.00
 2020 195   391   391  26.8 2.668 192.0 0.630  2.57 133.3 1.130 0.132 1.262 34692  1283   481 12861   890 10688 21350 0.612  2124  1901  1420 16.52 16.00 192.6  1.20 156.4  73.0  1.00  0.00  0.00  0.00  0.00   0.0  0.00  0.00  0.00
 2020 196   392   392  25.5 2.676 192.2 0.632  3.14 162.1 1.135 0.133 1.268 34851  1284   481 12884   893 10706 21486 0.613  2135  1903  1424 16.57 16.00 192.4  1.20 162.0  78.2  1.00  0.00  0.00  0.00  0.00   0.0  0.00  0.00  0.00
 2020 197   393   393  25.8 2.684 192.4 0.630  2.74 140.2 1.131 0.132 1.263 34986  1286   480 12901   890 10725 21605 0.614  2149  1906  1427 16.65 16.00 192.3  1.20 157.0  75.5  1.00  0.00  0.00  0.00  0.00   0.0  0.00  0.00  0.00
 2020 198   394   394  26.5 2.692 192.6 0.631  2.52 121.4 1.133 0.133 1.266 35100  1287   480 12924   894 10743 21697 0.615  2161  1910  1431 16.72 16.00 192.2  1.20 158.8  79.8  1.00  0.00  0.00  0.00  0.00   0.0  0.00  0.00  0.00
 2020 199   395   395  26.0 2.699 192.8 0.633  2.74 135.1 1.138 0.133 1.271 35233  1288   480 12947   898 10762 21806 0.616  2170  1913  1435 16.76 16.00 192.1  1.20 157.5  78.4  1.00  0.00  0.00  0.00  0.00   0.0  0.00  0.00  0.00
 2020 200   396   396  26.5 2.707 193.1 0.634  2.48 136.6 1.141 0.133 1.274 35374  1289   479 12965   896 10780 21930 0.617  2181  1916  1438 16.82 16.00 192.0  1.20 167.4  73.6  1.00  0.00  0.00  0.00  0.00   0.0  0.00  0.00  0.00
 2020 201   397   397  26.3 2.715 193.3 0.632  2.69 130.6 1.136 0.133 1.269 35492  1290   478 12981   893 10798 22033 0.618  2193  1919  1442 16.89 16.00 191.9  1.20 169.7  85.2  1.00  0.00  0.00  0.00  0.00   0.0  0.00  0.00  0.00
 2020 202   398   398  25.8 2.722 193.5 0.632  2.64 133.6 1.134 0.133 1.268 35625  1291   477 13004   896 10816 22144 0.618  2203  1922  1446 16.94 16.00 191.8  1.20 166.8  81.0  1.00  0.00  0.00  0.00  0.00   0.0  0.00  0.00  0.00
 2020 203   399   399  26.5 2.730 193.7 0.633  2.65 132.0 1.138 0.134 1.271 35753  1292   477 13026   899 10834 22249 0.619  2214  1925  1449 17.00 16.00 191.6  1.20 158.7  77.2  1.00  0.00  0.00  0.00  0.00   0.0  0.00  0.00  0.00
 2020 204   400   400  27.0 2.738 194.0 0.635  2.07 111.5 1.147 0.135 1.281 35867  1293   476 13053   907 10852 22338 0.620  2225  1927  1453 17.05 16.00 191.6  1.20 158.6  70.6  1.00  0.00  0.00  0.00  0.00   0.0  0.00  0.00  0.00
 2020 205   401   401  25.2 2.745 194.2 0.639  2.80 160.0 1.159 0.136 1.295 36029  1295   476 13081   916 10870 22472 0.621  2234  1928  1457 17.08 16.00 191.4  1.20 155.3  67.6  1.00  0.00  0.00  0.00  0.00   0.0  0.00  0.00  0.00
 2020 206   402   402  26.2 2.754 194.4 0.638  2.73 144.1 1.154 0.136 1.290 36163  1296   475 13097   913 10888 22591 0.622  2247  1931  1461 17.16 16.00 191.3  1.20 152.4  70.7  1.00  0.00  0.00  0.00  0.00   0.0  0.00  0.00  0.00
 2020 207   403   403  25.8 2.761 194.6 0.639  3.00 142.6 1.158 0.136 1.294 36295  1297   474 13120   917 10906 22700 0.622  2259  1934  1464 17.22 16.00 191.2  1.20 149.7  78.0  1.00  0.00  0.00  0.00  0.00   0.0  0.00  0.00  0.00
 2020 208   404   404  26.8 2.769 194.8 0.640  2.45 126.2 1.161 0.137 1.298 36423  1298   474 13142   920 10924 22807 0.623  2270  1937  1468 17.27 16.00 191.1  1.20 146.6  69.0  1.00  0.00  0.00  0.00  0.00   0.0  0.00  0.00  0.00
 2020 209   405   405  25.0 2.777 195.0 0.642  2.74 131.5 1.166 0.137 1.303 36547  1299   473 13160   919 10942 22914 0.624  2281  1940  1472 17.33 16.00 191.0  1.20 144.1  75.2  1.00  0.00  0.00  0.00  0.00   0.0  0.00  0.00  0.00
