$GROWTH ASPECTS SECONDARY OUTPUTS FILE

*DSSAT Cropping System Model Ver. 4.8.0.010 -develop  AUG 03, 2021 18:13:11

*RUN   1        : IITA-TMS-IBA000070        CSYCA048 UYAB1901    1
 MODEL          : CSYCA048 - Cassava
 EXPERIMENT     : UYAB1901 CS UYT_GXE
 DATA PATH      : C:\DSSAT48\CASSAVA\
 TREATMENT  1   : IITA-TMS-IBA000070        CSYCA048
  
@YEAR DOY   DAS   DAP TMEAN  GSTD  RSTD LAIPD LAISD  LAID  CHTD SDWAD SNWLD SNWSD SHRTD  RDPD  RL1D  RL2D  RL3D  RL4D  RL5D  RL6D  RL7D  RL8D  RL9D RL10D
 2019 169     0     0  28.9     0  0.00     0  0.00     0     0 450.0     0     0  0.00  0.20 0.000  0.00  0.00  0.00  0.00  0.00  0.00  0.00  0.00  0.00
 2019 170     1     1  29.0     0  0.00     0  0.00     0     0 450.0     0     0  0.00  0.20 0.000  0.00  0.00  0.00  0.00  0.00  0.00  0.00  0.00  0.00
 2019 171     2     2  26.7     0  0.00     0  0.00     0     0 450.0     0     0  0.00  0.20 0.000  0.00  0.00  0.00  0.00  0.00  0.00  0.00  0.00  0.00
 2019 172     3     3  27.7     0  0.00     0  0.00     0     0 450.0     0     0  0.00  0.20 0.000  0.00  0.00  0.00  0.00  0.00  0.00  0.00  0.00  0.00
 2019 173     4     4  25.8     0  0.00     0  0.00     0     0 450.0     0     0  0.00  0.20 0.000  0.00  0.00  0.00  0.00  0.00  0.00  0.00  0.00  0.00
 2019 174     5     5  27.6     0  0.00     0  0.00     0     0 450.0     0     0  0.00  0.20 0.000  0.00  0.00  0.00  0.00  0.00  0.00  0.00  0.00  0.00
 2019 175     6     6  24.4     0  0.00     0  0.00     0     0 450.0     0     0  0.00  0.20 0.000  0.00  0.00  0.00  0.00  0.00  0.00  0.00  0.00  0.00
 2019 176     7     7  26.4     0  0.00     0  0.00     0     0 450.0     0     0  0.00  0.20 0.000  0.00  0.00  0.00  0.00  0.00  0.00  0.00  0.00  0.00
 2019 177     8     8  25.0     0  0.00     0  0.00     0     0 442.6     0     0  0.00  0.21 0.000  0.00  0.00  0.00  0.00  0.00  0.00  0.00  0.00  0.00
 2019 178     9     9  25.0 .0179  0.02     0  0.00     0     0 442.6     0     0  0.00  0.22 0.000  0.00  0.00  0.00  0.00  0.00  0.00  0.00  0.00  0.00
 2019 179    10    10  26.4 .0357  0.04     0  0.00     0     0 442.6     0     0  0.00  0.24 0.000  0.00  0.00  0.00  0.00  0.00  0.00  0.00  0.00  0.00
 2019 180    11    11  27.3 .0522  0.05     0  0.00     0     0 442.6     0     0  0.00  0.25 0.000  0.00  0.00  0.00  0.00  0.00  0.00  0.00  0.00  0.00
 2019 181    12    12  27.4 .0677  0.07 .0033  0.00     0 .0031 432.5     0     0480.71  0.26 0.002  0.00  0.00  0.00  0.00  0.00  0.00  0.00  0.00  0.00
 2019 182    13    13  25.8 .0831  0.08 .0091  0.00 .0033 .0086 419.2     0 .0071207.80  0.27 0.005  0.00  0.00  0.00  0.00  0.00  0.00  0.00  0.00  0.00
 2019 183    14    14  26.5 0.100  0.10 .0176  0.00 .0091 .0173 404.1     0 .0239123.25  0.29 0.008  0.01  0.01  0.01  0.00  0.00  0.00  0.00  0.00  0.00
 2019 184    15    15  26.8 0.117  0.12 .0268  0.00 .0176 .0291 389.0     0 .0522 86.05  0.30 0.011  0.01  0.01  0.01  0.00  0.00  0.00  0.00  0.00  0.00
 2019 185    16    16  26.8 0.133  0.13 .0414  0.00 .0268 .0468 369.6     0 .0923 61.46  0.31 0.016  0.01  0.01  0.01  0.01  0.00  0.00  0.00  0.00  0.00
 2019 186    17    17  25.7 0.149  0.15 .0590  0.00 .0414 .0660 349.6     0 0.148 46.61  0.33 0.020  0.02  0.01  0.01  0.01  0.00  0.00  0.00  0.00  0.00
 2019 187    18    18  27.2 0.166  0.17 .0797  0.00 .0590 .0902 329.6     0 0.222 37.19  0.34 0.025  0.02  0.02  0.02  0.01  0.00  0.00  0.00  0.00  0.00
 2019 188    19    19  27.2 0.181  0.18 0.102  0.00 .0797 0.115 310.1     0 0.318 30.95  0.35 0.031  0.03  0.02  0.02  0.02  0.01  0.00  0.00  0.00  0.00
 2019 189    20    20  23.8 0.197  0.20 0.122  0.00 0.102 0.134 297.5     0 0.431 27.07  0.36 0.036  0.03  0.03  0.02  0.02  0.01  0.00  0.00  0.00  0.00
 2019 190    21    21  26.4 0.215  0.21 0.149  0.00 0.122 0.159 281.3     0 0.562 23.66  0.37 0.042  0.04  0.03  0.03  0.02  0.01  0.00  0.00  0.00  0.00
 2019 191    22    22  26.0 0.231  0.23 0.171  0.00 0.146 0.182 274.7     0 0.718 21.78  0.38 0.047  0.04  0.03  0.03  0.03  0.02  0.00  0.00  0.00  0.00
 2019 192    23    23  24.4 0.248  0.25 0.198  0.00 0.171 0.204 263.4     0 0.889 19.95  0.39 0.053  0.05  0.04  0.03  0.03  0.02  0.01  0.00  0.00  0.00
 2019 193    24    24  25.5 0.266  0.27 0.223  0.00 0.198 0.226 260.8     0 1.080 18.87  0.41 0.058  0.05  0.04  0.04  0.03  0.02  0.01  0.00  0.00  0.00
 2019 194    25    25  26.5 0.283  0.28 0.248  0.00 0.223 0.249 260.8     0 1.303 18.07  0.41 0.064  0.06  0.05  0.04  0.04  0.03  0.01  0.00  0.00  0.00
 2019 195    26    26  26.0 0.300  0.30 0.275  0.00 0.248 0.271 260.8     0 1.551 17.40  0.42 0.070  0.06  0.05  0.05  0.04  0.03  0.02  0.00  0.00  0.00
 2019 196    27    27  26.2 0.317  0.32 0.303  0.00 0.275 0.294 260.8     0 1.826 16.82  0.43 0.075  0.07  0.06  0.05  0.04  0.03  0.02  0.00  0.00  0.00
 2019 197    28    28  27.5 0.333  0.33 0.335  0.00 0.303 0.322 259.3     0 2.143 16.28  0.44 0.082  0.07  0.06  0.05  0.05  0.04  0.02  0.00  0.00  0.00
 2019 198    29    29  27.4 0.349  0.35 0.362  0.00 0.335 0.343 259.3     0 2.503 15.91  0.45 0.087  0.08  0.06  0.06  0.05  0.04  0.02  0.00  0.00  0.00
 2019 199    30    30  26.5 0.364  0.36 0.394  0.00 0.362 0.367 259.3     0 2.889 15.55  0.46 0.093  0.08  0.07  0.06  0.05  0.04  0.03  0.00  0.00  0.00
 2019 200    31    31  24.8 0.380  0.38 0.423  0.00 0.394 0.384 259.3     0 3.297 15.24  0.47 0.099  0.09  0.07  0.07  0.06  0.05  0.03  0.00  0.00  0.00
 2019 201    32    32  26.0 0.398  0.40 0.453  0.00 0.423 0.404 259.3     0 3.737 14.98  0.48 0.105  0.09  0.08  0.07  0.06  0.05  0.03  0.01  0.00  0.00
 2019 202    33    33  26.4 0.415  0.42 0.484  0.00 0.453 0.424 259.3     0 4.198 14.75  0.49 0.111  0.10  0.08  0.07  0.07  0.05  0.04  0.01  0.00  0.00
 2019 203    34    34  25.7 0.431  0.43 0.516  0.00 0.484 0.443 259.3     0 4.673 14.54  0.50 0.117  0.10  0.09  0.08  0.07  0.06  0.04  0.01  0.00  0.00
 2019 204    35    35  26.8 0.449  0.45 0.549  0.00 0.516 0.464 259.3     0 5.184 14.36  0.51 0.123  0.11  0.09  0.08  0.07  0.06  0.04  0.01  0.00  0.00
 2019 205    36    36  27.7 0.465  0.46 0.583  0.00 0.549 0.486 259.3     0 5.746 14.20  0.52 0.129  0.11  0.10  0.09  0.08  0.06  0.05  0.01  0.00  0.00
 2019 206    37    37  24.8 0.480  0.48 0.619  0.00 0.583 0.504 259.3     0 6.325 14.04  0.53 0.135  0.12  0.10  0.09  0.08  0.07  0.05  0.01  0.00  0.00
 2019 207    38    38  25.8 0.498  0.50 0.654  0.00 0.619 0.523 259.3     0 6.926 13.90  0.54 0.142  0.12  0.10  0.09  0.08  0.07  0.05  0.02  0.00  0.00
 2019 208    39    39  25.9 0.515  0.51 0.690  0.00 0.654 0.543 259.3     0 7.558 13.78  0.55 0.148  0.13  0.11  0.10  0.09  0.07  0.06  0.02  0.00  0.00
 2019 209    40    40  26.1 0.532  0.53 0.727  0.00 0.690 0.562 259.3     0 8.210 13.67  0.56 0.154  0.13  0.11  0.10  0.09  0.08  0.06  0.02  0.00  0.00
 2019 210    41    41  26.2 0.548  0.55 0.765  0.00 0.727 0.582 259.3     0 8.879 13.57  0.57 0.161  0.14  0.12  0.11  0.10  0.08  0.06  0.02  0.00  0.00
 2019 211    42    42  26.5 0.564  0.56 0.803  0.00 0.765 0.602 259.3     0 9.605 13.48  0.58 0.167  0.14  0.12  0.11  0.10  0.08  0.07  0.03  0.00  0.00
 2019 212    43    43  26.2 0.579  0.58 0.842  0.00 0.803 0.620 259.3     0 10.37 13.40  0.59 0.173  0.15  0.13  0.12  0.10  0.09  0.07  0.03  0.00  0.00
 2019 213    44    44  25.8 0.592  0.59 0.880  0.00 0.842 0.637 259.3     0 11.17 13.33  0.60 0.176  0.16  0.13  0.12  0.11  0.09  0.07  0.03  0.00  0.00
 2019 214    45    45  25.1 0.609  0.61 0.918  0.00 0.880 0.655 259.3     0 12.00 13.27  0.61 0.182  0.16  0.14  0.12  0.11  0.09  0.08  0.03  0.00  0.00
 2019 215    46    46  25.8 0.627  0.63 0.956  0.00 0.918 0.674 259.3     0 12.87 13.22  0.62 0.188  0.17  0.14  0.13  0.12  0.10  0.08  0.04  0.00  0.00
 2019 216    47    47  26.0 0.644  0.64     1  0.00 0.956 0.694 259.3     0 13.76 13.17  0.63 0.194  0.17  0.15  0.13  0.12  0.10  0.08  0.04  0.01  0.00
 2019 217    48    48  25.8 0.659  0.66 1.039  0.00     1 0.712 259.3     0 14.68 13.11  0.63 0.201  0.18  0.15  0.14  0.12  0.10  0.09  0.04  0.01  0.00
 2019 218    49    49  25.8 0.677  0.68 1.078  0.00 1.033 0.729 259.3     0 15.63 13.07  0.64 0.207  0.18  0.16  0.14  0.13  0.11  0.09  0.04  0.01  0.00
 2019 219    50    50  24.2 0.694  0.69 1.116  0.00 1.078 0.743 259.3     0 16.60 13.04  0.65 0.213  0.19  0.16  0.14  0.13  0.11  0.09  0.05  0.01  0.00
 2019 220    51    51  24.7 0.711  0.71 1.154  0.00 1.116 0.759 259.3     0 17.58 13.01  0.66 0.219  0.19  0.16  0.15  0.13  0.11  0.09  0.05  0.01  0.00
 2019 221    52    52  25.6 0.729  0.73 1.196  0.00 1.154 0.778 259.3     0 18.57 12.97  0.67 0.226  0.20  0.17  0.15  0.14  0.12  0.10  0.05  0.01  0.00
 2019 222    53    53  26.4 0.746  0.75 1.239  0.00 1.196 0.798 259.3     0 19.61 12.94  0.68 0.232  0.20  0.17  0.16  0.14  0.12  0.10  0.05  0.02  0.00
 2019 223    54    54  26.5 0.763  0.76 1.283  0.00 1.239 0.818 259.3     0 20.70 12.92  0.69 0.238  0.21  0.18  0.16  0.15  0.13  0.10  0.06  0.02  0.00
 2019 224    55    55  24.9 0.779  0.78 1.327  0.00 1.283 0.836 259.3     0 21.85 12.89  0.70 0.245  0.21  0.18  0.17  0.15  0.13  0.11  0.06  0.02  0.00
 2019 225    56    56  26.2 0.797  0.80 1.371  0.00 1.327 0.853 259.3     0 23.08 12.88  0.71 0.251  0.22  0.19  0.17  0.15  0.13  0.11  0.06  0.02  0.00
 2019 226    57    57  26.5 0.814  0.81 1.415  0.00 1.366 0.871 259.3     0 24.37 12.87  0.72 0.257  0.23  0.19  0.17  0.16  0.14  0.11  0.06  0.03  0.00
 2019 227    58    58  25.3 0.830  0.83 1.458  0.00 1.415 0.887 259.3     0 25.68 12.87  0.72 0.263  0.23  0.20  0.18  0.16  0.14  0.12  0.06  0.03  0.00
 2019 228    59    59  25.3 0.848  0.85 1.501  0.00 1.458 0.903 259.3     0 27.02 12.86  0.73 0.269  0.24  0.20  0.18  0.16  0.14  0.12  0.07  0.03  0.00
 2019 229    60    60  26.4 0.865  0.87 1.549  0.00 1.501 0.923 259.3     0 28.42 12.86  0.74 0.275  0.24  0.21  0.19  0.17  0.15  0.12  0.07  0.04  0.00
 2019 230    61    61  25.7 0.880  0.88 1.598  0.00 1.549 0.941 259.3     0 29.86 12.85  0.75 0.282  0.25  0.21  0.19  0.17  0.15  0.13  0.07  0.04  0.00
 2019 231    62    62  25.3 0.897  0.90 1.654  0.00 1.598 0.959 259.3     0 31.31 12.84  0.76 0.289  0.25  0.22  0.19  0.18  0.15  0.13  0.07  0.04  0.00
 2019 232    63    63  26.8 0.915  0.91 1.701  0.00 1.647 0.977 259.3     0 32.83 12.84  0.77 0.295  0.26  0.22  0.20  0.18  0.16  0.13  0.08  0.04  0.00
 2019 233    64    64  26.4 0.931  0.93 1.742  0.00 1.701     1 259.3     0 34.41 12.85  0.78 0.300  0.26  0.22  0.20  0.18  0.16  0.14  0.08  0.05  0.00
 2019 234    65    65  25.8 0.947  0.95 1.789  0.00 1.742 1.008 259.3     0 36.01 12.86  0.79 0.306  0.27  0.23  0.21  0.19  0.16  0.14  0.08  0.05  0.00
 2019 235    66    66  25.6 0.964  0.96 1.835  0.00 1.789 1.025 259.3     0 37.65 12.87  0.80 0.312  0.27  0.23  0.21  0.19  0.17  0.14  0.08  0.05  0.00
 2019 236    67    67  25.5 0.982  0.98 1.880  0.00 1.835 1.041 259.3     0 39.33 12.88  0.81 0.318  0.28  0.24  0.21  0.20  0.17  0.15  0.09  0.05  0.00
 2019 237    68    68  25.6     1  1.00 1.941  0.00 1.880 1.060 259.3     0 41.03 12.87  0.82 0.326  0.28  0.24  0.22  0.20  0.17  0.15  0.09  0.06  0.00
 2019 238    69    69  25.9 1.081  1.08 1.992  0.00 1.934 1.077 259.3     0 42.76 12.88  0.82 0.332  0.29  0.25  0.22  0.20  0.18  0.15  0.09  0.06  0.00
 2019 239    70    70  24.7 1.112  1.11 2.024  0.00 1.981 1.082 259.3     0 44.50 12.90  0.83 0.336  0.29  0.25  0.23  0.21  0.18  0.15  0.09  0.06  0.01
 2019 240    71    71  26.3 1.145  1.15 2.090  0.00 2.012 1.089 259.3     0 46.29 12.90  0.84 0.344  0.30  0.26  0.23  0.21  0.18  0.16  0.10  0.06  0.01
 2019 241    72    72  26.9 1.176  1.18 2.176  0.00 2.078 1.096 259.3     0 48.18 12.88  0.85 0.354  0.31  0.26  0.24  0.22  0.19  0.16  0.10  0.07  0.01
 2019 242    73    73  26.9 1.206  1.21 2.305  0.00 2.164 1.104 254.8     0 50.19 12.81  0.86 0.368  0.32  0.27  0.25  0.23  0.20  0.17  0.10  0.07  0.01
 2019 243    74    74  25.8 1.236  1.24 2.455  0.00 2.293 1.112 254.8     0 52.27 12.74  0.87 0.384  0.33  0.29  0.26  0.24  0.21  0.18  0.11  0.08  0.01
 2019 244    75    75  26.2 1.267  1.27 2.589  0.00 2.426 1.119 254.8     0 54.52 12.70  0.88 0.398  0.35  0.30  0.27  0.24  0.21  0.19  0.11  0.08  0.01
 2019 245    76    76  26.1 1.298  1.30 2.734  0.00 2.578 1.126 254.8     0 56.84 12.66  0.89 0.413  0.36  0.31  0.28  0.25  0.22  0.19  0.12  0.09  0.01
 2019 246    77    77  27.0 1.330  1.33 2.899  0.00 2.722 1.135 254.8     0 59.26 12.62  0.90 0.430  0.37  0.32  0.29  0.26  0.23  0.20  0.13  0.10  0.02
 2019 247    78    78  27.1 1.359  1.36 3.074  0.00 2.887 1.144 240.8     0 61.80 12.53  0.91 0.448  0.39  0.33  0.30  0.27  0.24  0.21  0.13  0.10  0.02
 2019 248    79    79  26.0 1.388  1.39 3.237  0.00 3.062 1.153 240.8     0 64.49 12.50  0.92 0.465  0.40  0.35  0.31  0.28  0.25  0.22  0.14  0.11  0.02
 2019 249    80    80  26.9 1.420  1.42 3.367  0.00 3.210 1.160 240.8     0 67.33 12.50  0.93 0.479  0.42  0.36  0.32  0.29  0.26  0.23  0.14  0.11  0.02
 2019 250    81    81  27.0 1.450  1.45 3.486  0.00 3.355 1.168 240.8     0 70.33 12.50  0.94 0.491  0.43  0.36  0.33  0.30  0.26  0.23  0.15  0.12  0.03
 2019 251    82    82  26.0 1.479  1.48 3.596  0.00 3.475 1.175 240.8     0 73.38 12.51  0.95 0.503  0.44  0.37  0.34  0.31  0.27  0.24  0.15  0.12  0.03
 2019 252    83    83  25.5 1.511  1.51 3.743  0.02 3.568 1.183 240.8 3.915 76.46 12.47  0.96 0.518  0.45  0.38  0.35  0.32  0.28  0.25  0.16  0.13  0.03
 2019 253    84    84  26.1 1.543  1.54 3.879  0.05 3.678 1.191 240.8 13.07 79.66 12.40  0.97 0.533  0.46  0.39  0.36  0.33  0.29  0.25  0.16  0.13  0.03
 2019 254    85    85  26.0 1.574  1.57 3.984  0.12 3.737 1.198 240.8 29.25 82.89 12.29  0.98 0.544  0.47  0.40  0.36  0.33  0.29  0.26  0.17  0.14  0.04
 2019 255    86    86  26.8 1.606  1.61 4.082  0.22 3.754 1.206 240.8 53.51 86.18 12.13  0.98 0.554  0.48  0.41  0.37  0.34  0.30  0.26  0.17  0.14  0.04
 2019 256    87    87  27.6 1.636  1.64 4.192  0.35 3.719 1.213 240.8 85.75 89.61 11.91  0.99 0.566  0.49  0.42  0.38  0.35  0.31  0.27  0.18  0.15  0.04
 2019 257    88    88  27.0 1.664  1.66 4.315  0.47 3.708 1.222 240.8 115.3 93.18 11.73  1.00 0.578  0.50  0.43  0.39  0.35  0.31  0.28  0.18  0.15  0.04
 2019 258    89    89  26.6 1.694  1.69 4.412  0.59 3.701 1.230 240.8 144.1 96.87 11.57  1.01 0.589  0.51  0.44  0.39  0.36  0.32  0.28  0.18  0.16  0.05
 2019 259    90    90  25.6 1.724  1.72 4.481  0.69 3.706 1.235 240.8 169.7 100.6 11.44  1.02 0.596  0.52  0.44  0.40  0.36  0.32  0.28  0.19  0.16  0.05
 2019 260    91    91  26.7 1.756  1.76 4.565  0.81 3.663 1.242 240.8 197.1 104.5 11.30  1.03 0.605  0.53  0.45  0.40  0.37  0.33  0.29  0.19  0.16  0.05
 2019 261    92    92  27.1 1.786  1.79 4.675  0.91 3.646 1.252 240.8 221.8 108.3 11.19  1.04 0.617  0.53  0.46  0.41  0.38  0.33  0.30  0.19  0.17  0.05
 2019 262    93    93  25.5 1.815  1.82 4.762  1.00 3.650 1.258 240.8 245.0 112.2 11.09  1.05 0.626  0.54  0.46  0.42  0.38  0.34  0.30  0.20  0.17  0.05
 2019 263    94    94  26.8 1.848  1.85 4.823  1.10 3.648 1.264 240.8 269.1 116.3 11.00  1.06 0.633  0.55  0.47  0.42  0.39  0.34  0.30  0.20  0.17  0.05
 2019 264    95    95  26.6 1.878  1.88 4.913  1.19 3.618 1.272 240.8 291.5 120.4 10.92  1.07 0.642  0.56  0.48  0.43  0.39  0.35  0.31  0.20  0.18  0.06
 2019 265    96    96  27.0 1.908  1.91 4.995  1.27 3.627 1.279 240.8 311.1 124.7 10.86  1.08 0.651  0.56  0.48  0.43  0.40  0.35  0.31  0.21  0.18  0.06
 2019 266    97    97  27.8 1.937  1.94 5.073  1.37 3.605 1.287 240.8 334.5 129.1 10.78  1.09 0.658  0.57  0.49  0.44  0.40  0.36  0.32  0.21  0.18  0.06
 2019 267    98    98  27.5 1.965  1.97 5.145  1.45 3.610 1.295 240.8 354.4 133.7 10.73  1.10 0.666  0.58  0.49  0.44  0.41  0.36  0.32  0.21  0.19  0.06
 2019 268    99    99  27.7 1.994  1.99 5.214  1.54 3.597 1.302 240.8 374.9 138.2 10.68  1.11 0.673  0.58  0.50  0.45  0.41  0.36  0.32  0.21  0.19  0.06
 2019 269   100   100  26.5 2.071  2.07 5.290  1.61 3.593 1.310 240.8 392.8 142.9 10.65  1.12 0.680  0.59  0.50  0.45  0.42  0.37  0.33  0.22  0.19  0.06
 2019 270   101   101  25.9 2.102  2.10 5.357  1.68 3.592 1.317 240.8 409.3 147.6 10.63  1.13 0.687  0.60  0.51  0.46  0.42  0.37  0.33  0.22  0.19  0.07
 2019 271   102   102  26.9 2.133  2.13 5.444  1.76 3.579 1.323 240.8 428.8 152.3 10.59  1.14 0.696  0.60  0.52  0.46  0.43  0.38  0.34  0.22  0.20  0.07
 2019 272   103   103  27.1 2.163  2.16 5.619  1.84 3.587 1.330 227.1 448.1 157.1 10.52  1.15 0.713  0.62  0.53  0.47  0.44  0.39  0.34  0.23  0.20  0.07
 2019 273   104   104  27.4 2.192  2.19 5.763  1.91 3.647 1.336 227.1 466.4 162.0 10.49  1.16 0.727  0.63  0.54  0.48  0.44  0.39  0.35  0.23  0.21  0.07
 2019 274   105   105  27.3 2.221  2.22 5.936  2.04 3.706 1.344 227.1 497.0 167.1 10.39  1.17 0.743  0.64  0.55  0.49  0.45  0.40  0.36  0.24  0.22  0.08
 2019 275   106   106  26.1 2.250  2.25 6.135  2.14 3.779 1.351 227.1 521.2 172.3 10.33  1.18 0.763  0.66  0.56  0.51  0.47  0.41  0.37  0.25  0.22  0.08
 2019 276   107   107  26.0 2.281  2.28 6.392  2.26 3.856 1.358 181.0 550.8 177.5 10.18  1.19 0.788  0.68  0.58  0.52  0.48  0.43  0.38  0.26  0.23  0.08
 2019 277   108   108  26.7 2.313  2.31 6.629  2.41 3.930 1.365 181.0 588.7 182.9 10.07  1.20 0.810  0.70  0.60  0.54  0.50  0.44  0.39  0.26  0.24  0.09
 2019 278   109   109  26.9 2.343  2.34 6.852  2.59 4.014 1.373 181.0 632.3 188.4  9.94  1.20 0.832  0.72  0.61  0.55  0.51  0.45  0.40  0.27  0.25  0.09
 2019 279   110   110  25.7 2.373  2.37 7.097  2.78 4.052 1.380 179.6 677.2 193.9  9.81  1.20 0.856  0.74  0.63  0.57  0.52  0.47  0.42  0.28  0.26  0.10
 2019 280   111   111  25.6 2.405  2.40 7.272  2.99 4.057 1.385 179.6 729.1 199.6  9.66  1.20 0.874  0.76  0.65  0.58  0.53  0.48  0.42  0.29  0.26  0.10
 2019 281   112   112  25.8 2.437  2.44 7.484  3.23 4.018 1.392 179.6 787.8 205.4  9.49  1.20 0.896  0.78  0.66  0.60  0.55  0.49  0.43  0.29  0.27  0.10
 2019 282   113   113  26.9 2.469  2.47 7.710  3.48 3.979 1.399 179.6 848.7 211.5  9.32  1.20 0.918  0.79  0.68  0.61  0.56  0.50  0.45  0.30  0.28  0.11
 2019 283   114   114  27.0 2.498  2.50 7.919  3.72 3.951 1.407 179.6 905.7 217.7  9.18  1.20 0.939  0.81  0.69  0.62  0.57  0.51  0.46  0.31  0.29  0.11
 2019 284   115   115  26.6 2.528  2.53 8.119  3.93 3.966 1.414 179.6 957.5 224.1  9.07  1.20 0.959  0.83  0.71  0.64  0.59  0.52  0.47  0.32  0.29  0.11
 2019 285   116   116  26.8 2.558  2.56 8.333  4.15 3.944 1.422 179.6  1012 230.9  8.96  1.20 0.980  0.85  0.72  0.65  0.60  0.53  0.48  0.32  0.30  0.12
 2019 286   117   117  27.0 2.588  2.59 8.489  4.36 3.929 1.428 179.6  1063 238.1  8.86  1.20 0.996  0.86  0.74  0.66  0.61  0.54  0.48  0.33  0.31  0.12
 2019 287   118   118  27.3 2.617  2.62 8.678  4.57 3.898 1.435 179.6  1113 245.4  8.78  1.20 1.014  0.88  0.75  0.67  0.62  0.55  0.49  0.34  0.31  0.12
 2019 288   119   119  27.8 2.646  2.65 8.848  4.78 3.873 1.442 179.6  1165 252.9  8.69  1.20 1.031  0.89  0.76  0.69  0.63  0.56  0.50  0.34  0.32  0.13
 2019 289   120   120  25.5 2.674  2.67 8.994  4.96 3.872 1.447 179.6  1206 260.5  8.65  1.20 1.046  0.90  0.77  0.70  0.64  0.57  0.51  0.35  0.33  0.13
 2019 290   121   121  27.3 2.707  2.71 9.206  5.14 3.836 1.455 179.6  1250 268.3  8.60  1.20 1.067  0.92  0.79  0.71  0.65  0.58  0.52  0.35  0.33  0.13
 2019 291   122   122  26.2 2.736  2.74 9.363  5.34 3.815 1.460 179.6  1299 276.0  8.53  1.20 1.083  0.94  0.80  0.72  0.66  0.59  0.53  0.36  0.34  0.13
 2019 292   123   123  26.6 2.767  2.77 9.501  5.52 3.825 1.466 179.6  1342 283.8  8.49  1.20 1.097  0.95  0.81  0.73  0.67  0.60  0.54  0.37  0.34  0.14
 2019 293   124   124  27.1 2.797  2.80 9.698  5.73 3.745 1.474 179.6  1395 291.5  8.42  1.20 1.117  0.97  0.83  0.74  0.68  0.61  0.55  0.37  0.35  0.14
 2019 294   125   125  27.0 2.826  2.83 9.842  5.91 3.744 1.480 179.6  1436 299.6  8.38  1.20 1.132  0.98  0.84  0.75  0.69  0.62  0.55  0.38  0.36  0.14
 2019 295   126   126  27.3 2.856  2.86 10.01  6.11 3.715 1.487 179.6  1485 307.9  8.33  1.20 1.149  0.99  0.85  0.76  0.70  0.63  0.56  0.38  0.36  0.15
 2019 296   127   127  27.2 2.885  2.88 10.19  6.25 3.736 1.495 179.6  1520 316.5  8.33  1.20 1.167  1.01  0.86  0.78  0.71  0.64  0.57  0.39  0.37  0.15
 2019 297   128   128  25.8 2.914  2.91 10.33  6.42 3.725 1.501 179.6  1562 325.1  8.30  1.20 1.181  1.02  0.87  0.78  0.72  0.64  0.58  0.40  0.38  0.15
 2019 298   129   129  27.8 2.946  2.95 10.45  6.57 3.732 1.507 179.6  1597 334.0  8.29  1.20 1.194  1.03  0.88  0.79  0.73  0.65  0.58  0.40  0.38  0.15
 2019 299   130   130  27.3 2.974  2.97 10.62  6.77 3.663 1.515 179.6  1644 342.9  8.26  1.20 1.211  1.05  0.89  0.80  0.74  0.66  0.59  0.41  0.39  0.16
 2019 300   131   131  25.8 3.008  3.01 10.74  6.90 3.686 1.520 179.6  1676 351.8  8.26  1.20 1.224  1.06  0.90  0.81  0.75  0.67  0.60  0.41  0.39  0.16
 2019 301   132   132  25.7 3.040  3.04 10.83  7.08 3.624 1.524 179.6  1721 360.6  8.22  1.20 1.235  1.07  0.91  0.82  0.75  0.67  0.60  0.41  0.40  0.16
 2019 302   133   133  27.5 3.072  3.07 11.06  7.23 3.564 1.530 179.6  1757 369.7  8.23  1.20 1.257  1.09  0.93  0.84  0.77  0.69  0.61  0.42  0.40  0.17
 2019 303   134   134  28.1 3.101  3.10 11.23  7.37 3.633 1.535 179.6  1790 379.0  8.24  1.20 1.274  1.10  0.94  0.85  0.78  0.69  0.62  0.43  0.41  0.17
 2019 304   135   135  27.1 3.128  3.13 11.56  7.50 3.695 1.540 179.6  1822 388.6  8.28  1.20 1.305  1.13  0.96  0.87  0.80  0.71  0.64  0.44  0.42  0.17
 2019 305   136   136  27.6 3.157  3.16 11.93  7.68 3.841 1.546 179.6  1865 398.5  8.29  1.20 1.340  1.16  0.99  0.89  0.82  0.73  0.66  0.45  0.43  0.18
 2019 306   137   137  27.0 3.186  3.19 12.26  7.87 4.016 1.550 179.6  1910 408.7  8.29  1.20 1.371  1.19  1.01  0.91  0.84  0.75  0.67  0.46  0.44  0.18
 2019 307   138   138  27.6 3.215  3.22 12.74  8.12 4.095 1.557 179.6  1972 419.2  8.27  1.20 1.415  1.22  1.04  0.94  0.86  0.77  0.69  0.48  0.46  0.19
 2019 308   139   139  27.7 3.244  3.24 13.17  8.41 4.244 1.563 179.6  2041 430.0  8.22  1.20 1.455  1.26  1.07  0.97  0.89  0.79  0.71  0.49  0.47  0.20
 2019 309   140   140  28.4 3.272  3.27 13.68  8.77 4.371 1.570 179.6  2126 441.1  8.16  1.20 1.501  1.30  1.11  1.00  0.92  0.82  0.74  0.51  0.49  0.21
 2019 310   141   141  28.2 3.299  3.30 14.24  9.16 4.491 1.578 179.6  2219 452.6  8.08  1.20 1.551  1.34  1.14  1.03  0.95  0.85  0.76  0.53  0.51  0.21
 2019 311   142   142  28.0 3.326  3.33 14.55  9.58 4.599 1.582 179.6  2319 464.5  7.97  1.20 1.580  1.37  1.17  1.05  0.97  0.86  0.78  0.54  0.52  0.22
 2019 312   143   143  28.4 3.354  3.35 15.02 10.04 4.470 1.589 179.6  2430 476.6  7.86  1.20 1.623  1.40  1.20  1.08  0.99  0.89  0.80  0.55  0.53  0.23
 2019 313   144   144  28.5 3.381  3.38 15.54 10.64 4.347 1.597 179.6  2572 489.1  7.69  1.20 1.670  1.44  1.23  1.11  1.02  0.91  0.82  0.57  0.55  0.23
 2019 314   145   145  27.5 3.407  3.41 15.94 11.09 4.403 1.603 179.6  2678 502.0  7.60  1.20 1.707  1.48  1.26  1.13  1.04  0.93  0.84  0.58  0.56  0.24
 2019 315   146   146  27.8 3.436  3.44 16.38 11.62 4.280 1.610 179.6  2805 515.2  7.47  1.20 1.747  1.51  1.29  1.16  1.07  0.95  0.86  0.59  0.58  0.25
 2019 316   147   147  26.8 3.464  3.46 16.67 12.04 4.257 1.614 179.6  2903 528.7  7.39  1.20 1.776  1.53  1.31  1.18  1.08  0.97  0.87  0.60  0.59  0.25
 2019 317   148   148  27.5 3.494  3.49 17.12 12.48 4.148 1.620 179.6  3008 542.4  7.33  1.20 1.817  1.57  1.34  1.21  1.11  0.99  0.89  0.62  0.60  0.26
 2019 318   149   149  27.8 3.523  3.52 17.60 12.82 4.255 1.628 179.6  3089 556.5  7.32  1.20 1.861  1.61  1.37  1.24  1.14  1.02  0.91  0.63  0.62  0.27
 2019 319   150   150  27.4 3.550  3.55 17.87 13.24 4.316 1.633 179.6  3187 571.0  7.25  1.20 1.888  1.63  1.39  1.25  1.15  1.03  0.93  0.64  0.63  0.27
 2019 320   151   151  27.9 3.578  3.58 18.27 13.73 4.111 1.639 179.6  3303 585.6  7.17  1.20 1.925  1.66  1.42  1.28  1.18  1.05  0.95  0.66  0.64  0.28
 2019 321   152   152  28.3 3.604  3.60 18.64 14.13 4.069 1.645 179.6  3400 600.6  7.13  1.20 1.959  1.69  1.44  1.30  1.20  1.07  0.96  0.67  0.65  0.28
 2019 322   153   153  28.5 3.627  3.63 19.04 14.65 3.950 1.651 179.6  3521 615.8  7.04  1.20 1.995  1.72  1.47  1.32  1.22  1.09  0.98  0.68  0.66  0.29
 2019 323   154   154  28.6 3.648  3.65 19.39 15.04 3.964 1.657 179.6  3613 631.3  7.01  1.20 2.028  1.75  1.50  1.35  1.24  1.11  1.00  0.69  0.68  0.29
 2019 324   155   155  28.0 3.668  3.67 19.69 15.40 3.950 1.661 179.6  3699 647.1  6.99  1.20 2.056  1.78  1.52  1.36  1.26  1.12  1.01  0.70  0.69  0.30
 2019 325   156   156  27.3 3.696  3.70 20.04 15.71 3.941 1.667 179.6  3772 663.1  6.99  1.20 2.089  1.80  1.54  1.39  1.28  1.14  1.03  0.71  0.70  0.30
 2019 326   157   157  28.4 3.725  3.72 20.34 16.06 3.940 1.672 179.6  3854 679.4  6.98  1.20 2.117  1.83  1.56  1.40  1.29  1.16  1.04  0.72  0.71  0.31
 2019 327   158   158  28.3 3.752  3.75 20.68 16.38 3.925 1.678 179.6  3929 695.9  6.98  1.20 2.148  1.86  1.58  1.43  1.31  1.17  1.06  0.73  0.72  0.31
 2019 328   159   159  28.2 3.779  3.78 21.00 16.74 3.907 1.683 179.6  4013 712.7  6.97  1.20 2.178  1.88  1.61  1.45  1.33  1.19  1.07  0.74  0.73  0.32
 2019 329   160   160  28.4 3.806  3.81 21.27 17.05 3.922 1.688 179.6  4086 729.7  6.97  1.20 2.202  1.90  1.62  1.46  1.34  1.20  1.08  0.75  0.74  0.32
 2019 330   161   161  28.2 3.831  3.83 21.51 17.39 3.824 1.693 179.6  4166 746.9  6.95  1.20 2.225  1.92  1.64  1.48  1.36  1.22  1.10  0.76  0.75  0.33
 2019 331   162   162  28.6 3.855  3.86 21.78 17.70 3.774 1.697 179.6  4240 764.3  6.95  1.20 2.250  1.94  1.66  1.49  1.37  1.23  1.11  0.77  0.76  0.33
 2019 332   163   163  27.8 3.877  3.88 22.02 18.03 3.693 1.701 179.6  4315 781.9  6.95  1.20 2.272  1.96  1.68  1.51  1.39  1.24  1.12  0.78  0.76  0.33
 2019 333   164   164  28.1 3.899  3.90 22.27 18.32 3.661 1.705 179.6  4386 799.7  6.95  1.20 2.295  1.98  1.69  1.52  1.40  1.25  1.13  0.79  0.77  0.34
 2019 334   165   165  28.0 3.918  3.92 22.51 18.50 3.723 1.709 179.6  4426 817.7  7.00  1.20 2.317  2.00  1.71  1.54  1.42  1.27  1.14  0.79  0.78  0.34
 2019 335   166   166  27.2 3.936  3.94 22.74 18.78 3.694 1.712 179.6  4491 835.9  7.02  1.20 2.339  2.02  1.72  1.55  1.43  1.28  1.15  0.80  0.79  0.34
 2019 336   167   167  27.8 3.964  3.96 23.02 18.91 3.787 1.717 179.6  4524 854.2  7.09  1.20 2.364  2.04  1.74  1.57  1.44  1.29  1.16  0.81  0.80  0.35
 2019 337   168   168  27.6 3.992  3.99 23.24 19.16 3.824 1.722 179.6  4581 872.7  7.11  1.20 2.385  2.06  1.76  1.58  1.46  1.30  1.17  0.82  0.80  0.35
 2019 338   169   169  27.7 4.068  4.07 23.53 19.40 3.804 1.726 179.6  4639 891.5  7.14  1.20 2.411  2.08  1.78  1.60  1.47  1.32  1.19  0.83  0.81  0.36
 2019 339   170   170  27.5 4.094  4.09 23.68 19.70 3.735 1.729 179.6  4708 910.4  7.14  1.20 2.425  2.09  1.79  1.61  1.48  1.33  1.19  0.83  0.82  0.36
 2019 340   171   171  27.8 4.118  4.12 24.03 19.96 3.625 1.733 179.6  4769 929.4  7.16  1.20 2.449  2.12  1.81  1.63  1.50  1.34  1.21  0.84  0.83  0.36
 2019 341   172   172  27.6 4.140  4.14 24.31 20.14 3.691 1.737 179.6  4812 948.7  7.21  1.20 2.469  2.13  1.82  1.64  1.51  1.35  1.22  0.85  0.83  0.37
 2019 342   173   173  27.7 4.160  4.16 24.60 20.41 3.704 1.740 179.6  4874 968.1  7.23  1.20 2.490  2.15  1.84  1.65  1.52  1.36  1.23  0.85  0.84  0.37
 2019 343   174   174  28.2 4.179  4.18 24.85 20.58 3.927 1.742 179.6  4915 987.6  7.27  1.20 2.504  2.16  1.85  1.66  1.53  1.37  1.23  0.86  0.85  0.37
 2019 344   175   175  27.4 4.196  4.20 25.12 20.84 3.915 1.744 179.6  4977  1007  7.28  1.20 2.521  2.18  1.86  1.67  1.54  1.38  1.24  0.87  0.85  0.38
 2019 345   176   176  26.7 4.222  4.22 25.46 21.08 3.954 1.748 179.6  5032  1027  7.31  1.20 2.539  2.19  1.87  1.69  1.55  1.39  1.25  0.87  0.86  0.38
 2019 346   177   177  26.9 4.250  4.25 25.73 21.34 3.981 1.751 179.6  5094  1047  7.33  1.20 2.555  2.21  1.88  1.70  1.56  1.40  1.26  0.88  0.86  0.38
 2019 347   178   178  27.6 4.276  4.28 25.99 21.59 3.986 1.754 179.6  5154  1067  7.34  1.20 2.568  2.22  1.89  1.70  1.57  1.40  1.27  0.88  0.87  0.38
 2019 348   179   179  26.9 4.299  4.30 26.27 21.88 4.015 1.758 179.6  5221  1087  7.35  1.20 2.582  2.23  1.90  1.71  1.58  1.41  1.27  0.89  0.87  0.39
 2019 349   180   180  26.7 4.320  4.32 26.54 22.22 3.955 1.760 179.6  5303  1108  7.34  1.20 2.599  2.24  1.92  1.72  1.59  1.42  1.28  0.89  0.88  0.39
 2019 350   181   181  27.2 4.340  4.34 26.80 22.51 3.933 1.763 179.6  5371  1128  7.34  1.20 2.608  2.25  1.92  1.73  1.59  1.43  1.29  0.90  0.88  0.39
 2019 351   182   182  27.5 4.357  4.36 27.07 22.88 3.781 1.766 179.6  5458  1149  7.31  1.20 2.620  2.26  1.93  1.74  1.60  1.43  1.29  0.90  0.89  0.39
 2019 352   183   183  28.0 4.383  4.38 27.27 23.14 3.789 1.769 179.6  5519  1169  7.32  1.20 2.627  2.27  1.94  1.74  1.60  1.44  1.30  0.90  0.89  0.39
 2019 353   184   184  27.6 4.408  4.41 27.51 23.38 3.801 1.774 179.6  5576  1190  7.34  1.20 2.632  2.27  1.94  1.75  1.61  1.44  1.30  0.91  0.89  0.39
 2019 354   185   185  27.2 4.432  4.43 27.67 23.59 3.765 1.776 179.6  5627  1211  7.35  1.20 2.634  2.27  1.94  1.75  1.61  1.44  1.30  0.91  0.89  0.39
 2019 355   186   186  26.5 4.454  4.45 27.92 23.91 3.667 1.780 179.6  5701  1232  7.35  1.20 2.642  2.28  1.95  1.75  1.61  1.44  1.30  0.91  0.90  0.40
 2019 356   187   187  25.5 4.476  4.48 28.17 24.18 3.603 1.783 179.6  5765  1253  7.36  1.20 2.653  2.29  1.96  1.76  1.62  1.45  1.31  0.91  0.90  0.40
 2019 357   188   188  26.4 4.496  4.50 28.32 24.42 3.610 1.785 179.6  5823  1273  7.36  1.20 2.654  2.29  1.96  1.76  1.62  1.45  1.31  0.91  0.90  0.40
 2019 358   189   189  26.7 4.513  4.51 28.46 24.62 3.601 1.788 179.6  5871  1294  7.38  1.20 2.650  2.29  1.95  1.76  1.62  1.45  1.31  0.91  0.90  0.40
 2019 359   190   190  26.6 4.539  4.54 28.63 24.89 3.463 1.790 179.6  5936  1315  7.38  1.20 2.653  2.29  1.96  1.76  1.62  1.45  1.31  0.91  0.90  0.40
 2019 360   191   191  26.9 4.566  4.57 28.76 25.08 3.439 1.793 179.6  5981  1336  7.40  1.20 2.651  2.29  1.95  1.76  1.62  1.45  1.31  0.91  0.90  0.40
 2019 361   192   192  26.7 4.589  4.59 28.90 25.27 3.392 1.796 179.6  6026  1357  7.43  1.20 2.649  2.29  1.95  1.76  1.62  1.45  1.31  0.91  0.90  0.40
 2019 362   193   193  26.5 4.611  4.61 29.02 25.47 3.309 1.798 179.6  6072  1378  7.45  1.20 2.645  2.28  1.95  1.76  1.62  1.45  1.30  0.91  0.90  0.40
 2019 363   194   194  25.7 4.631  4.63 29.11 25.57 3.329 1.800 179.6  6096  1399  7.49  1.20 2.637  2.28  1.94  1.75  1.61  1.44  1.30  0.91  0.90  0.40
 2019 364   195   195  26.1 4.650  4.65 29.17 25.57 3.452 1.802 179.6  6096  1420  7.56  1.20 2.623  2.27  1.93  1.74  1.60  1.43  1.29  0.90  0.89  0.39
 2019 365   196   196  26.4 4.666  4.67 29.27 25.74 3.328 1.803 179.6  6136  1441  7.59  1.20 2.617  2.26  1.93  1.74  1.60  1.43  1.29  0.90  0.89  0.39
 2020   1   197   197  26.2 4.692  4.69 29.38 25.89 3.273 1.806 179.6  6173  1461  7.62  1.20 2.613  2.26  1.93  1.73  1.60  1.43  1.29  0.90  0.89  0.39
 2020   2   198   198  25.2 4.718  4.72 29.51 26.03 3.242 1.808 179.6  6208  1482  7.65  1.20 2.611  2.26  1.93  1.73  1.60  1.43  1.29  0.90  0.89  0.39
 2020   3   199   199  23.6 4.745  4.74 29.62 26.16 3.252 1.810 179.6  6238  1503  7.69  1.20 2.609  2.25  1.92  1.73  1.59  1.43  1.28  0.90  0.89  0.39
 2020   4   200   200  25.0 4.769  4.77 29.71 26.29 3.232 1.812 179.6  6270  1523  7.73  1.20 2.602  2.25  1.92  1.73  1.59  1.42  1.28  0.90  0.89  0.39
 2020   5   201   201  25.0 4.791  4.79 29.78 26.29 3.323 1.814 179.6  6270  1544  7.81  1.20 2.592  2.24  1.91  1.72  1.58  1.42  1.27  0.89  0.88  0.39
 2020   6   202   202  26.2 4.812  4.81 29.87 26.29 3.396 1.816 179.6  6270  1564  7.88  1.20 2.582  2.23  1.90  1.71  1.58  1.41  1.27  0.89  0.88  0.39
 2020   7   203   203  27.6 4.828  4.83 29.91 26.29 3.460 1.818 179.6  6270  1585  7.96  1.20 2.567  2.22  1.89  1.70  1.57  1.40  1.26  0.88  0.87  0.39
 2020   8   204   204  28.1 4.852  4.85 30.01 26.45 3.349 1.821 179.6  6307  1605  7.99  1.20 2.562  2.21  1.89  1.70  1.57  1.40  1.26  0.88  0.87  0.39
 2020   9   205   205  28.3 4.875  4.88 30.12 26.61 3.312 1.825 179.6  6345  1625  8.01  1.20 2.554  2.21  1.88  1.70  1.56  1.40  1.25  0.88  0.87  0.39
 2020  10   206   206  28.0 4.896  4.90 30.21 26.76 3.245 1.828 179.6  6383  1645  8.04  1.20 2.548  2.20  1.88  1.69  1.56  1.39  1.25  0.88  0.87  0.38
 2020  11   207   207  27.8 4.915  4.92 30.31 26.92 3.177 1.830 179.6  6420  1665  8.07  1.20 2.544  2.20  1.88  1.69  1.55  1.39  1.25  0.88  0.87  0.38
 2020  12   208   208  28.5 4.933  4.93 30.36 26.93 3.283 1.833 179.6  6424  1686  8.14  1.20 2.530  2.18  1.87  1.68  1.55  1.38  1.24  0.87  0.86  0.38
 2020  13   209   209  29.8 4.948  4.95 30.39 26.93 3.322 1.835 179.6  6424  1706  8.21  1.20 2.512  2.17  1.85  1.67  1.53  1.37  1.23  0.87  0.86  0.38
 2020  14   210   210  29.0 4.960  4.96 30.41 26.93 3.347 1.837 179.6  6424  1725  8.29  1.20 2.550  2.20  1.88  1.69  1.56  1.39  1.25  0.88  0.87  0.39
 2020  15   211   211  29.1 4.981  4.98 30.47 26.93 3.386 1.840 179.6  6424  1745  8.36  1.20 2.482  2.14  1.83  1.65  1.52  1.35  1.21  0.86  0.85  0.38
 2020  16   212   212  27.5 5.016  5.02 30.51 26.93 3.428 1.842 179.6  6424  1765  8.44  1.20 2.468  2.13  1.82  1.64  1.51  1.35  1.21  0.85  0.84  0.37
 2020  17   213   213  26.6 5.038  5.04 30.55 27.06 3.344 1.844 179.6  6454  1784  8.47  1.20 2.460  2.12  1.81  1.63  1.50  1.34  1.20  0.85  0.84  0.37
 2020  18   214   214  26.8 5.058  5.06 30.62 27.19 3.266 1.845 179.6  6484  1804  8.51  1.20 2.455  2.12  1.81  1.63  1.50  1.34  1.20  0.85  0.84  0.37
 2020  19   215   215  25.8 5.079  5.08 30.73 27.30 3.207 1.847 179.6  6513  1823  8.55  1.20 2.451  2.12  1.81  1.63  1.50  1.33  1.19  0.84  0.84  0.37
 2020  20   216   216  26.7 5.099  5.10 30.84 27.43 3.196 1.849 179.6  6544  1842  8.59  1.20 2.444  2.11  1.80  1.62  1.49  1.33  1.19  0.84  0.83  0.37
 2020  21   217   217  28.1 5.115  5.12 30.89 27.49 3.249 1.850 179.6  6557  1862  8.65  1.20 2.431  2.10  1.79  1.61  1.48  1.32  1.18  0.84  0.83  0.37
 2020  22   218   218  28.2 5.128  5.13 30.91 27.49 3.300 1.851 179.6  6557  1881  8.72  1.20 2.518  2.17  1.86  1.67  1.54  1.37  1.22  0.87  0.86  0.38
 2020  23   219   219  27.8 5.151  5.15 30.98 27.49 3.320 1.853 179.6  6557  1900  8.80  1.20 2.401  2.07  1.77  1.59  1.47  1.30  1.17  0.83  0.82  0.36
 2020  24   220   220  27.5 5.173  5.17 31.02 27.49 3.388 1.856 179.6  6557  1919  8.88  1.20 2.385  2.06  1.76  1.58  1.46  1.29  1.16  0.82  0.81  0.36
 2020  25   221   221  26.8 5.194  5.19 31.04 27.49 3.427 1.857 179.6  6557  1938  8.96  1.20 2.368  2.04  1.75  1.57  1.45  1.28  1.15  0.82  0.81  0.36
 2020  26   222   222  25.3 5.213  5.21 31.11 27.58 3.353 1.859 179.6  6580  1957  9.00  1.20 2.356  2.03  1.74  1.56  1.44  1.28  1.14  0.81  0.80  0.36
 2020  27   223   223  26.0 5.231  5.23 31.18 27.69 3.314 1.861 179.6  6605  1975  9.04  1.20 2.345  2.02  1.73  1.56  1.43  1.27  1.14  0.81  0.80  0.36
 2020  28   224   224  26.5 5.247  5.25 31.27 27.80 3.276 1.862 179.6  6631  1994  9.09  1.20 2.400  2.07  1.77  1.59  1.47  1.30  1.16  0.83  0.82  0.36
 2020  29   225   225  27.1 5.271  5.27 31.36 27.90 3.259 1.865 179.6  6656  2012  9.13  1.20 2.327  2.01  1.72  1.54  1.42  1.26  1.12  0.80  0.79  0.35
 2020  30   226   226  27.2 5.294  5.29 31.40 27.95 3.313 1.868 179.6  6667  2031  9.19  1.20 2.312  2.00  1.70  1.53  1.41  1.25  1.12  0.80  0.79  0.35
 2020  31   227   227  27.4 5.315  5.31 31.44 27.95 3.354 1.870 179.6  6667  2049  9.27  1.20 2.297  1.98  1.69  1.52  1.40  1.24  1.11  0.79  0.78  0.35
 2020  32   228   228  27.0 5.334  5.33 31.47 27.95 3.385 1.871 179.6  6667  2067  9.35  1.20 2.281  1.97  1.68  1.51  1.39  1.23  1.10  0.79  0.78  0.35
 2020  33   229   229  26.5 5.350  5.35 31.51 27.95 3.417 1.873 179.6  6667  2085  9.43  1.20 2.268  1.96  1.67  1.51  1.39  1.22  1.09  0.78  0.77  0.34
 2020  34   230   230  26.8 5.365  5.37 31.61 28.06 3.345 1.875 179.6  6695  2103  9.47  1.20 2.281  1.97  1.68  1.51  1.39  1.23  1.10  0.78  0.78  0.35
 2020  35   231   231  26.9 5.389  5.39 31.72 28.17 3.333 1.877 179.6  6720  2121  9.52  1.20 2.256  1.95  1.66  1.50  1.38  1.21  1.08  0.78  0.77  0.34
 2020  36   232   232  27.1 5.413  5.41 31.81 28.28 3.332 1.878 179.6  6747  2139  9.56  1.20 2.250  1.94  1.66  1.49  1.37  1.21  1.08  0.77  0.77  0.34
 2020  37   233   233  27.5 5.434  5.43 31.91 28.39 3.317 1.881 179.6  6774  2156  9.60  1.20 2.244  1.94  1.65  1.49  1.37  1.20  1.07  0.77  0.76  0.34
 2020  38   234   234  27.2 5.453  5.45 31.98 28.42 3.387 1.883 179.6  6781  2174  9.67  1.20 2.234  1.93  1.65  1.48  1.36  1.20  1.07  0.77  0.76  0.34
 2020  39   235   235  28.4 5.470  5.47 32.01 28.42 3.457 1.884 179.6  6781  2192  9.75  1.20 2.218  1.92  1.64  1.47  1.35  1.19  1.06  0.76  0.75  0.34
 2020  40   236   236  28.4 5.483  5.48 32.08 28.53 3.373 1.886 179.6  6806  2209  9.80  1.20 2.208  1.91  1.63  1.47  1.35  1.18  1.05  0.76  0.75  0.34
 2020  41   237   237  28.4 5.495  5.50 32.16 28.64 3.337 1.888 179.6  6832  2227  9.84  1.20 2.487  2.15  1.83  1.65  1.52  1.33  1.18  0.85  0.84  0.38
 2020  42   238   238  28.9 5.516  5.52 32.22 28.74 3.323 1.889 179.6  6856  2244  9.89  1.20 2.193  1.89  1.62  1.46  1.34  1.17  1.04  0.75  0.74  0.33
 2020  43   239   239  28.0 5.537  5.54 32.31 28.81 3.304 1.890 179.6  6875  2261  9.94  1.20 2.187  1.89  1.61  1.45  1.34  1.16  1.04  0.75  0.74  0.33
 2020  44   240   240  27.8 5.557  5.56 32.36 28.81 3.394 1.893 179.6  6875  2279 10.02  1.20 2.175  1.88  1.60  1.44  1.33  1.15  1.03  0.74  0.74  0.33
 2020  45   241   241  28.5 5.575  5.58 32.38 28.81 3.443 1.894 179.6  6875  2296 10.11  1.20 2.160  1.86  1.59  1.43  1.32  1.15  1.02  0.74  0.73  0.33
 2020  46   242   242  28.4 5.590  5.59 32.44 28.91 3.365 1.895 179.6  6897  2313 10.16  1.20 2.150  1.86  1.59  1.43  1.31  1.14  1.02  0.73  0.73  0.33
 2020  47   243   243  28.8 5.603  5.60 32.50 29.01 3.325 1.897 179.6  6921  2330 10.20  1.20 2.244  1.94  1.65  1.49  1.37  1.19  1.06  0.77  0.76  0.34
 2020  48   244   244  29.3 5.623  5.62 32.56 29.10 3.288 1.900 179.6  6944  2347 10.25  1.20 2.131  1.84  1.57  1.41  1.30  1.12  1.00  0.73  0.72  0.32
 2020  49   245   245  29.1 5.642  5.64 32.63 29.17 3.284 1.901 179.6  6961  2363 10.31  1.20 2.123  1.83  1.57  1.41  1.30  1.12  1.00  0.72  0.72  0.32
 2020  50   246   246  29.2 5.660  5.66 32.65 29.17 3.334 1.903 179.6  6961  2380 10.40  1.20 2.110  1.82  1.56  1.40  1.29  1.11  0.99  0.72  0.71  0.32
 2020  51   247   247  29.9 5.675  5.68 32.66 29.17 3.372 1.905 179.6  6961  2397 10.49  1.20 2.094  1.81  1.54  1.39  1.28  1.10  0.98  0.71  0.71  0.32
 2020  52   248   248  30.2 5.688  5.69 32.67 29.17 3.386 1.906 179.6  6961  2413 10.58  1.20 2.077  1.79  1.53  1.38  1.27  1.09  0.98  0.71  0.70  0.32
 2020  53   249   249  31.3 5.699  5.70 32.68 29.17 3.394 1.907 179.6  6961  2429 10.67  1.20 2.281  1.97  1.68  1.51  1.39  1.20  1.07  0.78  0.77  0.35
 2020  54   250   250  31.1 5.715  5.72 32.68 29.17 3.401 1.910 179.6  6961  2446 10.76  1.20 2.044  1.76  1.51  1.36  1.25  1.08  0.96  0.70  0.69  0.31
 2020  55   251   251  30.5 5.731  5.73 32.69 29.17 3.406 1.913 179.6  6961  2462 10.85  1.20 2.028  1.75  1.49  1.35  1.24  1.07  0.95  0.69  0.68  0.31
 2020  56   252   252  29.4 5.746  5.75 32.75 29.27 3.315 1.914 179.6  6984  2478 10.90  1.20 2.020  1.74  1.49  1.34  1.23  1.06  0.95  0.69  0.68  0.31
 2020  57   253   253  29.8 5.761  5.76 32.81 29.38 3.273 1.916 179.6  7009  2494 10.94  1.20 2.011  1.74  1.48  1.33  1.23  1.05  0.94  0.68  0.68  0.31
 2020  58   254   254  30.0 5.773  5.77 32.88 29.48 3.221 1.919 179.6  7034  2509 10.99  1.20 2.003  1.73  1.48  1.33  1.22  1.05  0.93  0.68  0.67  0.30
 2020  59   255   255  30.3 5.783  5.78 32.90 29.54 3.235 1.919 179.6  7047  2525 11.05  1.20 2.342  2.02  1.73  1.55  1.43  1.22  1.09  0.79  0.79  0.36
 2020  60   256   256  32.2 5.801  5.80 32.90 29.54 3.256 1.921 179.6  7047  2541 11.15  1.20 1.974  1.70  1.46  1.31  1.21  1.03  0.92  0.67  0.66  0.30
 2020  61   257   257  30.8 5.815  5.82 32.93 29.54 3.260 1.924 179.6  7047  2556 11.24  1.20 1.961  1.69  1.45  1.30  1.20  1.02  0.91  0.67  0.66  0.30
 2020  62   258   258  30.8 5.830  5.83 32.98 29.57 3.259 1.925 179.6  7054  2572 11.32  1.20 1.954  1.69  1.44  1.30  1.19  1.02  0.91  0.66  0.66  0.30
 2020  63   259   259  30.8 5.842  5.84 33.05 29.65 3.223 1.926 179.6  7074  2587 11.37  1.20 1.949  1.68  1.44  1.29  1.19  1.01  0.90  0.66  0.65  0.30
 2020  64   260   260  30.8 5.853  5.85 33.10 29.74 3.209 1.928 179.6  7095  2602 11.43  1.20 2.016  1.74  1.49  1.34  1.23  1.04  0.93  0.68  0.68  0.31
 2020  65   261   261  31.3 5.862  5.86 33.17 29.89 3.106 1.930 179.6  7132  2617 11.45  1.20 2.506  2.16  1.85  1.66  1.53  1.30  1.16  0.85  0.84  0.38
 2020  66   262   262  30.5 5.878  5.88 33.22 29.96 3.112 1.931 179.6  7147  2632 11.51  1.20 1.927  1.66  1.42  1.28  1.18  0.99  0.89  0.65  0.64  0.29
 2020  67   263   263  30.8 5.895  5.90 33.31 30.07 3.044 1.933 179.6  7173  2647 11.54  1.20 1.926  1.66  1.42  1.28  1.18  0.99  0.88  0.65  0.64  0.29
 2020  68   264   264  30.6 5.910  5.91 33.38 30.16 3.047 1.935 179.6  7194  2662 11.59  1.20 1.921  1.66  1.42  1.28  1.17  0.98  0.88  0.64  0.64  0.29
 2020  69   265   265  31.4 5.923  5.92 33.41 30.22 3.058 1.937 179.6  7209  2677 11.66  1.20 1.910  1.65  1.41  1.27  1.17  0.98  0.87  0.64  0.64  0.29
 2020  70   266   266  30.6 5.933  5.93 33.44 30.29 3.021 1.938 179.6  7224  2692 11.72  1.20 2.000  1.73  1.47  1.33  1.22  1.02  0.91  0.67  0.66  0.30
 2020  71   267   267  31.1 5.942  5.94 33.48 30.32 3.019 1.939 179.6  7231  2706 11.81  1.20 2.462  2.13  1.82  1.63  1.50  1.26  1.12  0.82  0.82  0.38
 2020  72   268   268  30.6 5.958  5.96 33.57 30.39 2.982 1.942 179.6  7249  2721 11.86  1.20 1.888  1.63  1.39  1.25  1.15  0.96  0.86  0.63  0.63  0.29
 2020  73   269   269  29.3 5.975  5.97 33.64 30.45 3.016 1.943 179.6  7264  2736 11.92  1.20 1.887  1.63  1.39  1.25  1.15  0.95  0.85  0.63  0.62  0.29
 2020  74   270   270  28.9 5.992  5.99 33.71 30.51 3.026 1.945 179.6  7277  2750 11.98  1.20 1.882  1.63  1.39  1.25  1.15  0.95  0.85  0.63  0.62  0.29
 2020  75   271   271  29.3 6.043  6.04 33.74 30.57 3.033 1.947 179.6  7291  2765 12.06  1.20 1.871  1.62  1.38  1.24  1.14  0.94  0.84  0.62  0.62  0.29
 2020  76   272   272  30.3 6.056  6.06 33.76 30.62 3.014 1.948 179.6  7302  2780 12.13  1.20 1.859  1.61  1.37  1.23  1.14  0.94  0.83  0.62  0.61  0.28
 2020  77   273   273  30.9 6.066  6.07 33.79 30.71 2.945 1.949 179.6  7323  2794 12.19  1.20 2.129  1.84  1.57  1.41  1.30  1.07  0.95  0.71  0.70  0.33
 2020  78   274   274  31.3 6.082  6.08 33.84 30.79 2.901 1.950 179.6  7342  2809 12.24  1.20 1.846  1.59  1.36  1.23  1.13  0.92  0.82  0.61  0.61  0.28
 2020  79   275   275  31.3 6.098  6.10 33.89 30.87 2.865 1.952 179.6  7362  2823 12.30  1.20 1.841  1.59  1.36  1.22  1.12  0.92  0.82  0.61  0.60  0.28
 2020  80   276   276  30.2 6.111  6.11 33.98 30.93 2.848 1.953 179.6  7376  2837 12.36  1.20 1.838  1.59  1.36  1.22  1.12  0.91  0.82  0.61  0.60  0.28
 2020  81   277   277  31.5 6.124  6.12 34.05 31.02 2.854 1.954 179.6  7397  2852 12.41  1.20 1.831  1.58  1.35  1.22  1.12  0.91  0.81  0.60  0.60  0.28
 2020  82   278   278  30.5 6.133  6.13 34.15 31.14 2.786 1.955 179.6  7425  2866 12.45  1.20 2.036  1.76  1.50  1.35  1.24  1.00  0.90  0.67  0.66  0.31
 2020  83   279   279  30.7 6.150  6.15 34.29 31.21 2.832 1.958 179.6  7441  2880 12.50  1.20 1.830  1.58  1.35  1.21  1.12  0.90  0.80  0.60  0.59  0.28
 2020  84   280   280  28.7 6.168  6.17 34.47 31.27 2.913 1.961 179.6  7454  2894 12.55  1.20 1.837  1.59  1.35  1.22  1.12  0.90  0.80  0.60  0.59  0.28
 2020  85   281   281  29.9 6.189  6.19 34.63 31.33 3.034 1.964 179.6  7469  2908 12.61  1.20 1.840  1.59  1.36  1.22  1.12  0.89  0.80  0.60  0.59  0.28
 2020  86   282   282  30.1 6.206  6.21 34.77 31.39 3.095 1.965 179.6  7483  2923 12.66  1.20 1.844  1.59  1.36  1.22  1.13  0.89  0.79  0.60  0.59  0.28
 2020  87   283   283  31.5 6.221  6.22 34.90 31.49 3.174 1.968 179.6  7506  2937 12.71  1.20 1.843  1.59  1.36  1.22  1.13  0.88  0.79  0.59  0.59  0.28
 2020  88   284   284  31.3 6.232  6.23 35.01 31.60 3.196 1.969 179.6  7531  2951 12.75  1.20 1.842  1.59  1.36  1.22  1.13  0.88  0.79  0.59  0.59  0.28
 2020  89   285   285  31.7 6.242  6.24 35.07 31.68 3.198 1.970 179.6  7550  2965 12.80  1.20 2.037  1.76  1.50  1.35  1.24  0.97  0.87  0.65  0.65  0.31
 2020  90   286   286  31.8 6.257  6.26 35.22 31.78 3.190 1.973 179.6  7572  2979 12.84  1.20 1.838  1.59  1.35  1.22  1.12  0.87  0.78  0.59  0.58  0.28
 2020  91   287   287  30.8 6.272  6.27 35.35 31.84 3.273 1.976 179.6  7587  2994 12.90  1.20 1.838  1.59  1.36  1.22  1.12  0.87  0.77  0.59  0.58  0.28
 2020  92   288   288  30.0 6.291  6.29 35.50 31.90 3.347 1.977 179.6  7600  3008 12.96  1.20 1.841  1.59  1.36  1.22  1.12  0.87  0.77  0.58  0.58  0.28
 2020  93   289   289  30.6 6.311  6.31 35.64 31.99 3.344 1.979 179.6  7622  3022 13.00  1.20 1.845  1.59  1.36  1.22  1.13  0.87  0.77  0.58  0.58  0.28
 2020  94   290   290  31.2 6.328  6.33 35.76 32.06 3.475 1.982 179.6  7638  3036 13.05  1.20 1.843  1.59  1.36  1.22  1.13  0.87  0.77  0.58  0.58  0.28
 2020  95   291   291  28.9 6.343  6.34 35.99 32.12 3.538 1.983 179.6  7652  3050 13.09  1.20 1.855  1.60  1.37  1.23  1.13  0.88  0.78  0.58  0.58  0.28
 2020  96   292   292  30.6 6.358  6.36 36.16 32.24 3.651 1.985 179.6  7678  3064 13.12  1.20 1.858  1.60  1.37  1.23  1.14  0.88  0.78  0.58  0.58  0.28
 2020  97   293   293  30.7 6.369  6.37 36.32 32.35 3.710 1.987 179.6  7703  3079 13.15  1.20 1.870  1.61  1.38  1.24  1.14  0.89  0.79  0.58  0.58  0.29
 2020  98   294   294  30.8 6.387  6.39 36.46 32.48 3.731 1.990 179.6  7734  3093 13.18  1.20 1.862  1.61  1.37  1.24  1.14  0.89  0.79  0.58  0.57  0.29
 2020  99   295   295  29.6 6.405  6.40 36.67 32.63 3.733 1.992 179.6  7767  3107 13.19  1.20 1.870  1.61  1.38  1.24  1.14  0.89  0.79  0.58  0.57  0.29
 2020 100   296   296  29.5 6.422  6.42 36.89 32.77 3.796 1.995 179.6  7800  3121 13.19  1.20 1.880  1.62  1.39  1.25  1.15  0.90  0.80  0.58  0.57  0.29
 2020 101   297   297  30.4 6.437  6.44 37.05 32.95 3.839 1.996 179.6  7841  3136 13.19  1.20 1.887  1.63  1.39  1.25  1.15  0.90  0.80  0.58  0.57  0.29
 2020 102   298   298  28.5 6.457  6.46 37.29 33.11 3.832 1.997 179.6  7878  3150 13.17  1.20 1.903  1.64  1.40  1.26  1.16  0.91  0.81  0.58  0.57  0.29
 2020 103   299   299  30.7 6.480  6.48 37.45 33.31 3.792 1.999 179.6  7923  3165 13.16  1.20 1.909  1.65  1.41  1.27  1.17  0.92  0.82  0.58  0.57  0.29
 2020 104   300   300  31.5 6.498  6.50 37.62 33.51 3.832 2.002 179.6  7970  3179 13.15  1.20 1.913  1.65  1.41  1.27  1.17  0.92  0.82  0.58  0.57  0.29
 2020 105   301   301  31.9 6.512  6.51 37.79 33.79 3.720 2.003 179.6  8034  3194 13.10  1.20 1.919  1.66  1.41  1.27  1.17  0.93  0.82  0.58  0.57  0.29
 2020 106   302   302  31.9 6.524  6.52 37.93 34.02 3.609 2.004 179.6  8086  3208 13.08  1.20 1.924  1.66  1.42  1.28  1.18  0.93  0.83  0.57  0.57  0.29
 2020 107   303   303  31.5 6.534  6.53 38.05 34.19 3.637 2.007 179.6  8124  3223 13.10  1.20 1.922  1.66  1.42  1.28  1.17  0.93  0.83  0.57  0.57  0.29
 2020 108   304   304  30.9 6.543  6.54 38.22 34.38 3.564 2.008 179.6  8169  3238 13.09  1.20 2.257  1.95  1.66  1.50  1.38  1.09  0.97  0.67  0.67  0.35
 2020 109   305   305  31.0 6.561  6.56 38.35 34.50 3.612 2.010 179.6  8196  3252 13.12  1.20 1.928  1.66  1.42  1.28  1.18  0.94  0.83  0.57  0.57  0.30
 2020 110   306   306  30.0 6.578  6.58 38.53 34.73 3.489 2.011 179.6  8248  3267 13.09  1.20 1.939  1.67  1.43  1.29  1.18  0.94  0.84  0.57  0.57  0.30
 2020 111   307   307  30.0 6.595  6.59 38.74 34.91 3.516 2.014 179.6  8288  3282 13.09  1.20 1.948  1.68  1.44  1.29  1.19  0.95  0.84  0.57  0.57  0.30
 2020 112   308   308  31.3 6.609  6.61 38.84 35.02 3.617 2.015 179.6  8313  3297 13.13  1.20 1.947  1.68  1.44  1.29  1.19  0.95  0.85  0.57  0.57  0.30
 2020 113   309   309  30.7 6.621  6.62 39.01 35.22 3.521 2.016 179.6  8358  3311 13.12  1.20 1.953  1.69  1.44  1.30  1.19  0.95  0.85  0.57  0.56  0.30
 2020 114   310   310  30.1 6.631  6.63 39.17 35.35 3.552 2.018 179.6  8389  3326 13.14  1.20 2.165  1.87  1.60  1.44  1.32  1.06  0.94  0.63  0.62  0.33
 2020 115   311   311  30.4 6.649  6.65 39.37 35.48 3.591 2.021 179.6  8417  3341 13.16  1.20 1.964  1.70  1.45  1.30  1.20  0.96  0.85  0.56  0.56  0.30
 2020 116   312   312  30.5 6.667  6.67 39.53 35.67 3.592 2.023 179.6  8462  3356 13.15  1.20 1.973  1.70  1.45  1.31  1.21  0.97  0.86  0.56  0.56  0.30
 2020 117   313   313  29.8 6.684  6.68 39.72 35.81 3.621 2.024 179.6  8492  3371 13.17  1.20 1.981  1.71  1.46  1.31  1.21  0.97  0.86  0.56  0.56  0.30
 2020 118   314   314  29.5 6.702  6.70 39.93 35.94 3.679 2.027 179.6  8522  3386 13.19  1.20 1.991  1.72  1.47  1.32  1.22  0.98  0.87  0.56  0.56  0.30
 2020 119   315   315  30.4 6.719  6.72 40.10 36.18 3.642 2.028 179.6  8577  3401 13.15  1.20 2.002  1.73  1.48  1.33  1.22  0.99  0.87  0.56  0.56  0.30
 2020 120   316   316  31.6 6.733  6.73 40.23 36.34 3.661 2.030 179.6  8612  3416 13.17  1.20 2.006  1.73  1.48  1.33  1.23  0.99  0.87  0.56  0.56  0.30
 2020 121   317   317  29.9 6.746  6.75 40.47 36.71 3.409 2.031 179.6  8698  3431 13.06  1.20 2.027  1.75  1.49  1.35  1.24  1.00  0.88  0.57  0.56  0.31
 2020 122   318   318  29.9 6.763  6.76 40.73 37.01 3.359 2.034 179.6  8764  3446 13.00  1.20 2.044  1.76  1.51  1.36  1.25  1.01  0.89  0.57  0.57  0.31
 2020 123   319   319  29.8 6.782  6.78 40.91 37.21 3.416 2.035 179.6  8811  3462 12.99  1.20 2.055  1.77  1.52  1.36  1.26  1.02  0.89  0.57  0.57  0.31
 2020 124   320   320  28.6 6.800  6.80 41.09 37.34 3.459 2.036 179.6  8840  3477 13.01  1.20 2.066  1.78  1.52  1.37  1.26  1.03  0.90  0.57  0.57  0.31
 2020 125   321   321  29.0 6.819  6.82 41.27 37.49 3.453 2.038 179.6  8874  3492 13.02  1.20 2.078  1.79  1.53  1.38  1.27  1.03  0.90  0.57  0.57  0.31
 2020 126   322   322  30.1 6.838  6.84 41.46 37.65 3.517 2.041 179.6  8910  3508 13.03  1.20 2.086  1.80  1.54  1.38  1.27  1.04  0.91  0.57  0.57  0.32
 2020 127   323   323  30.6 6.853  6.85 41.66 37.81 3.547 2.043 179.6  8947  3524 13.04  1.20 2.093  1.81  1.54  1.39  1.28  1.04  0.91  0.57  0.57  0.32
 2020 128   324   324  29.9 6.866  6.87 41.87 38.08 3.469 2.044 179.6  9008  3539 13.00  1.20 2.106  1.82  1.55  1.40  1.29  1.05  0.91  0.57  0.57  0.32
 2020 129   325   325  29.3 6.878  6.88 42.01 38.25 3.451 2.045 179.6  9046  3555 13.01  1.20 2.178  1.88  1.61  1.45  1.33  1.09  0.94  0.58  0.58  0.33
 2020 130   326   326  28.5 6.888  6.89 42.21 38.42 3.493 2.047 179.6  9083  3571 13.02  1.20 2.577  2.22  1.90  1.71  1.57  1.29  1.12  0.69  0.69  0.39
 2020 131   327   327  29.5 6.910  6.91 42.42 38.64 3.464 2.048 179.6  9133  3587 12.99  1.20 2.139  1.85  1.58  1.42  1.31  1.07  0.92  0.57  0.57  0.32
 2020 132   328   328  29.1 6.932  6.93 42.59 38.77 3.540 2.050 179.6  9163  3603 13.01  1.20 2.150  1.86  1.59  1.43  1.31  1.08  0.93  0.57  0.57  0.32
 2020 133   329   329  29.4 6.954  6.95 42.75 38.90 3.572 2.052 179.6  9193  3619 13.03  1.20 2.159  1.86  1.59  1.43  1.32  1.08  0.93  0.57  0.57  0.32
 2020 134   330   330  28.5 6.973  6.97 43.05 39.18 3.470 2.054 179.6  9255  3635 12.98  1.20 2.182  1.88  1.61  1.45  1.33  1.10  0.94  0.57  0.57  0.33
 2020 135   331   331  29.8 6.993  6.99 43.26 39.35 3.601 2.057 179.6  9293  3651 12.99  1.20 2.191  1.89  1.61  1.45  1.34  1.10  0.94  0.57  0.57  0.33
 2020 136   332   332  29.6 7.050  7.05 43.44 39.52 3.635 2.058 179.6  9332  3667 13.00  1.20 2.199  1.90  1.62  1.46  1.34  1.11  0.94  0.57  0.57  0.33
 2020 137   333   333  30.0 7.069  7.07 43.66 39.87 3.399 2.060 179.6  9413  3683 12.92  1.20 2.219  1.92  1.64  1.47  1.36  1.12  0.95  0.57  0.57  0.33
 2020 138   334   334  30.9 7.087  7.09 43.83 40.11 3.386 2.061 179.6  9467  3700 12.90  1.20 2.229  1.92  1.64  1.48  1.36  1.13  0.95  0.57  0.57  0.33
 2020 139   335   335  30.4 7.101  7.10 44.00 40.35 3.312 2.063 179.6  9522  3716 12.88  1.20 2.241  1.93  1.65  1.49  1.37  1.13  0.95  0.57  0.57  0.33
 2020 140   336   336  29.4 7.115  7.12 44.25 40.49 3.346 2.064 179.6  9554  3733 12.90  1.20 2.249  1.94  1.66  1.49  1.37  1.14  0.96  0.57  0.57  0.33
 2020 141   337   337  29.4 7.129  7.13 44.39 40.49 3.496 2.065 179.6  9554  3749 12.99  1.20 2.248  1.94  1.66  1.49  1.37  1.14  0.96  0.57  0.57  0.33
 2020 142   338   338  29.4 7.143  7.14 44.63 40.72 3.407 2.066 179.6  9606  3766 12.97  1.20 2.258  1.95  1.66  1.50  1.38  1.15  0.96  0.57  0.57  0.34
 2020 143   339   339  29.8 7.167  7.17 44.86 40.94 3.434 2.068 179.6  9654  3783 12.97  1.20 2.266  1.96  1.67  1.50  1.38  1.15  0.96  0.57  0.57  0.34
 2020 144   340   340  30.4 7.191  7.19 45.13 41.15 3.450 2.070 179.6  9702  3799 12.96  1.20 2.275  1.96  1.68  1.51  1.39  1.16  0.97  0.57  0.57  0.34
 2020 145   341   341  28.2 7.214  7.21 45.43 41.32 3.651 2.073 179.6  9740  3816 12.96  1.20 2.287  1.97  1.69  1.52  1.40  1.16  0.98  0.58  0.57  0.34
 2020 146   342   342  28.1 7.241  7.24 45.68 41.46 3.807 2.074 179.6  9773  3833 12.98  1.20 2.297  1.98  1.69  1.52  1.40  1.17  0.98  0.58  0.57  0.34
 2020 147   343   343  30.4 7.268  7.27 45.92 41.63 3.887 2.076 179.6  9810  3850 13.00  1.20 2.303  1.99  1.70  1.53  1.41  1.17  0.99  0.59  0.57  0.34
 2020 148   344   344  29.5 7.291  7.29 46.30 42.02 3.743 2.080 179.6  9899  3867 12.91  1.20 2.322  2.01  1.71  1.54  1.42  1.18  1.00  0.60  0.57  0.34
 2020 149   345   345  28.3 7.315  7.31 46.74 42.39 3.751 2.083 179.6  9983  3884 12.82  1.20 2.348  2.03  1.73  1.56  1.43  1.20  1.01  0.61  0.57  0.35
 2020 150   346   346  28.6 7.341  7.34 47.06 42.63 3.946 2.084 179.6 10038  3901 12.80  1.20 2.361  2.04  1.74  1.57  1.44  1.21  1.02  0.61  0.58  0.35
 2020 151   347   347  29.2 7.368  7.37 47.49 43.10 3.803 2.088 179.6 10144  3918 12.69  1.20 2.383  2.06  1.76  1.58  1.46  1.22  1.03  0.62  0.59  0.35
 2020 152   348   348  30.0 7.393  7.39 47.82 43.37 3.956 2.091 179.6 10206  3936 12.66  1.20 2.394  2.07  1.76  1.59  1.46  1.23  1.04  0.63  0.59  0.35
 2020 153   349   349  26.3 7.417  7.42 48.28 43.78 3.873 2.094 179.6 10300  3954 12.56  1.20 2.420  2.09  1.78  1.61  1.48  1.24  1.05  0.64  0.60  0.35
 2020 154   350   350  28.0 7.448  7.45 48.78 44.25 3.866 2.098 179.6 10407  3972 12.44  1.20 2.449  2.11  1.81  1.62  1.50  1.26  1.07  0.65  0.61  0.36
 2020 155   351   351  29.0 7.475  7.48 49.18 44.57 4.042 2.101 179.6 10481  3990 12.39  1.20 2.467  2.13  1.82  1.64  1.51  1.27  1.08  0.66  0.62  0.36
 2020 156   352   352  28.2 7.501  7.50 49.64 45.09 3.931 2.104 179.6 10600  4008 12.26  1.20 2.490  2.15  1.84  1.65  1.52  1.28  1.09  0.67  0.63  0.37
 2020 157   353   353  29.1 7.528  7.53 50.04 45.47 4.006 2.108 179.6 10688  4026 12.20  1.20 2.508  2.17  1.85  1.66  1.53  1.29  1.10  0.68  0.64  0.37
 2020 158   354   354  27.6 7.554  7.55 50.35 45.73 4.146 2.111 179.6 10747  4045 12.18  1.20 2.518  2.17  1.86  1.67  1.54  1.30  1.11  0.68  0.65  0.37
 2020 159   355   355  28.0 7.582  7.58 50.86 46.28 3.903 2.114 179.6 10875  4064 12.05  1.20 2.547  2.20  1.88  1.69  1.56  1.32  1.12  0.69  0.66  0.38
 2020 160   356   356  27.9 7.610  7.61 51.24 46.65 4.043 2.117 179.6 10960  4083 11.99  1.20 2.563  2.21  1.89  1.70  1.57  1.33  1.13  0.70  0.67  0.38
 2020 161   357   357  28.0 7.637  7.64 51.58 46.94 4.134 2.120 179.6 11027  4102 11.96  1.20 2.575  2.22  1.90  1.71  1.57  1.33  1.14  0.71  0.67  0.38
 2020 162   358   358  28.2 7.665  7.66 52.08 47.54 3.871 2.124 179.6 11166  4121 11.82  1.20 2.604  2.25  1.92  1.73  1.59  1.35  1.15  0.72  0.68  0.38
 2020 163   359   359  26.5 7.692  7.69 52.49 47.93 3.993 2.127 179.6 11254  4141 11.76  1.20 2.623  2.26  1.93  1.74  1.60  1.36  1.16  0.73  0.69  0.39
 2020 164   360   360  27.2 7.723  7.72 52.87 48.22 4.007 2.130 179.6 11321  4160 11.74  1.20 2.639  2.28  1.94  1.75  1.61  1.37  1.17  0.73  0.70  0.39
 2020 165   361   361  27.3 7.752  7.75 53.37 48.80 3.795 2.133 179.6 11458  4180 11.61  1.20 2.668  2.30  1.97  1.77  1.63  1.39  1.19  0.74  0.71  0.40
 2020 166   362   362  27.9 7.781  7.78 53.83 49.27 3.827 2.136 179.6 11568  4200 11.52  1.20 2.691  2.32  1.98  1.79  1.64  1.40  1.20  0.75  0.72  0.40
 2020 167   363   363  29.2 7.808  7.81 54.20 49.60 4.065 2.139 179.6 11645  4220 11.49  1.20 2.705  2.34  1.99  1.79  1.65  1.41  1.21  0.76  0.73  0.40
 2020 168   364   364  28.6 7.834  7.83 54.73 50.22 3.812 2.143 179.6 11789  4241 11.36  1.20 2.736  2.36  2.02  1.82  1.67  1.43  1.23  0.77  0.74  0.41
 2020 169   365   365  28.5 7.860  7.86 55.08 50.62 3.949 2.146 179.6 11882  4261 11.31  1.20 2.748  2.37  2.03  1.82  1.68  1.43  1.23  0.78  0.75  0.41
 2020 170   366   366  27.0 7.887  7.89 55.46 50.90 4.020 2.149 179.6 11946  4282 11.30  1.20 2.763  2.38  2.04  1.83  1.69  1.44  1.24  0.79  0.75  0.41
 2020 171   367   367  28.0 7.916  7.92 56.00 51.52 3.669 2.152 179.6 12090  4303 11.17  1.20 2.795  2.41  2.06  1.85  1.71  1.46  1.26  0.80  0.77  0.42
 2020 172   368   368  28.2 7.944  7.94 56.44 51.95 3.769 2.155 179.6 12193  4324 11.11  1.20 2.816  2.43  2.08  1.87  1.72  1.47  1.27  0.81  0.78  0.42
 2020 173   369   369  27.6 7.971  7.97 56.77 52.28 3.885 2.157 179.6 12268  4345 11.09  1.20 2.830  2.44  2.09  1.88  1.73  1.48  1.28  0.81  0.78  0.42
 2020 174   370   370  26.6 8.000  8.00 57.31 52.87 3.736 2.160 179.6 12407  4367 10.97  1.20 2.863  2.47  2.11  1.90  1.75  1.50  1.30  0.83  0.80  0.43
 2020 175   371   371  27.5 8.096  8.10 57.78 53.35 3.799 2.163 179.6 12518  4388 10.91  1.20 2.888  2.49  2.13  1.92  1.76  1.51  1.31  0.84  0.81  0.43
 2020 176   372   372  26.8 8.124  8.12 58.13 53.65 3.967 2.166 179.6 12589  4410 10.90  1.20 2.901  2.50  2.14  1.92  1.77  1.52  1.32  0.84  0.81  0.43
 2020 177   373   373  27.2 8.154  8.15 58.56 54.26 3.706 2.167 179.6 12733  4432 10.79  1.20 2.931  2.53  2.16  1.94  1.79  1.54  1.33  0.85  0.82  0.44
 2020 178   374   374  26.5 8.183  8.18 58.95 54.75 3.651 2.169 179.6 12848  4454 10.72  1.20 2.957  2.55  2.18  1.96  1.81  1.55  1.35  0.86  0.84  0.44
 2020 179   375   375  27.4 8.214  8.21 59.37 55.05 3.740 2.172 179.6 12920  4477 10.71  1.20 2.972  2.57  2.19  1.97  1.82  1.56  1.35  0.87  0.84  0.45
 2020 180   376   376  26.6 8.243  8.24 59.77 55.34 3.869 2.173 179.6 12988  4499 10.70  1.20 2.988  2.58  2.20  1.98  1.83  1.57  1.36  0.88  0.85  0.45
 2020 181   377   377  26.0 8.273  8.27 60.29 55.86 3.754 2.175 179.6 13111  4520 10.62  1.20 3.014  2.60  2.22  2.00  1.84  1.58  1.38  0.89  0.86  0.45
 2020 182   378   378  27.2 8.304  8.30 60.68 56.19 3.719 2.176 179.6 13191  4542 10.60  1.20 3.029  2.61  2.23  2.01  1.85  1.59  1.39  0.89  0.87  0.46
 2020 183   379   379  28.1 8.333  8.33 61.13 56.55 3.970 2.180 179.6 13276  4564 10.57  1.20 3.044  2.63  2.24  2.02  1.86  1.60  1.39  0.90  0.87  0.46
 2020 184   380   380  28.5 8.361  8.36 61.84 57.34 3.623 2.183 179.6 13464  4587 10.42  1.20 3.083  2.66  2.27  2.05  1.88  1.62  1.41  0.92  0.89  0.47
 2020 185   381   381  26.7 8.387  8.39 62.39 57.90 3.767 2.186 179.6 13596  4610 10.34  1.20 3.109  2.68  2.29  2.06  1.90  1.64  1.43  0.93  0.90  0.47
 2020 186   382   382  25.2 8.417  8.42 62.82 58.24 3.984 2.187 179.6 13676  4634 10.33  1.20 3.128  2.70  2.31  2.08  1.91  1.65  1.44  0.93  0.91  0.47
 2020 187   383   383  26.8 8.450  8.45 63.26 58.62 4.032 2.190 179.6 13767  4657 10.30  1.20 3.144  2.71  2.32  2.09  1.92  1.66  1.45  0.94  0.91  0.48
 2020 188   384   384  27.3 8.480  8.48 63.96 59.39 3.701 2.193 179.6 13952  4681 10.17  1.20 3.183  2.75  2.35  2.11  1.94  1.68  1.47  0.96  0.93  0.48
 2020 189   385   385  26.6 8.509  8.51 64.48 59.87 3.927 2.195 179.6 14065  4704 10.12  1.20 3.207  2.77  2.36  2.13  1.96  1.70  1.48  0.97  0.94  0.49
 2020 190   386   386  27.0 8.539  8.54 64.96 60.35 3.710 2.196 179.6 14181  4727 10.06  1.20 3.232  2.79  2.38  2.14  1.97  1.71  1.49  0.98  0.95  0.49
 2020 191   387   387  27.0 8.569  8.57 65.47 60.84 3.957 2.199 179.6 14297  4751 10.01  1.20 3.254  2.81  2.40  2.16  1.99  1.72  1.50  0.98  0.96  0.49
 2020 192   388   388  24.8 8.598  8.60 66.14 61.54 3.763 2.202 179.6 14465  4775  9.90  1.20 3.294  2.84  2.43  2.19  2.01  1.74  1.53  1.00  0.97  0.50
 2020 193   389   389  25.5 8.632  8.63 66.63 61.94 4.038 2.204 179.6 14561  4798  9.87  1.20 3.315  2.86  2.44  2.20  2.02  1.76  1.54  1.01  0.98  0.50
 2020 194   390   390  26.5 8.664  8.66 67.09 62.37 3.965 2.206 179.6 14665  4822  9.84  1.20 3.338  2.88  2.46  2.21  2.04  1.77  1.55  1.02  0.99  0.51
 2020 195   391   391  26.8 8.694  8.69 67.59 62.80 4.128 2.209 179.6 14769  4845  9.80  1.20 3.360  2.90  2.48  2.23  2.05  1.78  1.56  1.03  1.00  0.51
 2020 196   392   392  25.5 8.724  8.72 68.31 63.60 3.821 2.211 179.6 14962  4868  9.67  1.20 3.407  2.94  2.51  2.26  2.08  1.81  1.58  1.04  1.02  0.52
 2020 197   393   393  25.8 8.757  8.76 68.82 64.04 4.108 2.214 179.6 15069  4891  9.63  1.20 3.430  2.96  2.53  2.28  2.09  1.82  1.60  1.05  1.03  0.52
 2020 198   394   394  26.5 8.789  8.79 69.24 64.48 4.088 2.216 179.6 15175  4915  9.60  1.20 3.449  2.98  2.54  2.29  2.11  1.83  1.61  1.06  1.04  0.53
 2020 199   395   395  26.0 8.819  8.82 69.73 64.90 4.187 2.218 179.6 15277  4939  9.57  1.20 3.471  3.00  2.56  2.30  2.12  1.84  1.62  1.07  1.04  0.53
 2020 200   396   396  26.5 8.851  8.85 70.50 65.80 3.762 2.221 179.6 15498  4963  9.42  1.20 3.520  3.04  2.59  2.34  2.15  1.87  1.64  1.09  1.06  0.54
 2020 201   397   397  26.3 8.881  8.88 71.00 66.27 4.067 2.224 179.6 15612  4987  9.38  1.20 3.541  3.06  2.61  2.35  2.16  1.88  1.66  1.10  1.07  0.54
 2020 202   398   398  25.8 8.912  8.91 71.44 66.73 4.072 2.226 179.6 15722  5012  9.35  1.20 3.564  3.08  2.63  2.36  2.18  1.90  1.67  1.10  1.08  0.54
 2020 203   399   399  26.5 8.944  8.94 71.90 67.20 4.045 2.227 179.6 15838  5037  9.31  1.20 3.586  3.10  2.64  2.38  2.19  1.91  1.68  1.11  1.09  0.55
 2020 204   400   400  27.0 8.974  8.97 72.63 68.11 3.632 2.230 179.6 16058  5063  9.18  1.20 3.630  3.13  2.68  2.41  2.22  1.93  1.70  1.13  1.11  0.55
 2020 205   401   401  25.2 9.010  9.01 73.14 68.53 3.942 2.233 179.6 16161  5089  9.16  1.20 3.653  3.15  2.69  2.42  2.23  1.95  1.71  1.14  1.11  0.56
 2020 206   402   402  26.2 9.043  9.04 73.58 68.98 3.998 2.234 179.6 16271  5115  9.13  1.20 3.674  3.17  2.71  2.44  2.24  1.96  1.72  1.15  1.12  0.56
 2020 207   403   403  25.8 9.074  9.07 74.01 69.42 4.001 2.235 179.6 16378  5141  9.11  1.20 3.694  3.19  2.72  2.45  2.26  1.97  1.74  1.15  1.13  0.57
 2020 208   404   404  26.8 9.106  9.11 74.70 70.38 3.468 2.237 179.6 16613  5167  8.97  1.20 3.743  3.23  2.76  2.48  2.29  2.00  1.76  1.17  1.15  0.57
 2020 209   405   405  25.0 9.136  9.14 75.12 70.84 3.699 2.238 179.6 16725  5193  8.94  1.20 3.762  3.25  2.77  2.50  2.30  2.01  1.77  1.18  1.16  0.58

*DSSAT Cropping System Model Ver. 4.8.0.010 -develop  AUG 03, 2021 18:13:13

*RUN   2        : IITA-TMS-IBA30572         CSYCA048 UYAB1901    2
 MODEL          : CSYCA048 - Cassava
 EXPERIMENT     : UYAB1901 CS UYT_GXE
 DATA PATH      : C:\DSSAT48\CASSAVA\
 TREATMENT  2   : IITA-TMS-IBA30572         CSYCA048
  
@YEAR DOY   DAS   DAP TMEAN  GSTD  RSTD LAIPD LAISD  LAID  CHTD SDWAD SNWLD SNWSD SHRTD  RDPD  RL1D  RL2D  RL3D  RL4D  RL5D  RL6D  RL7D  RL8D  RL9D RL10D
 2019 169     0     0  28.9     0  0.00     0  0.00     0     0 450.0     0     0  0.00  0.20 0.000  0.00  0.00  0.00  0.00  0.00  0.00  0.00  0.00  0.00
 2019 170     1     1  29.0     0  0.00     0  0.00     0     0 450.0     0     0  0.00  0.20 0.000  0.00  0.00  0.00  0.00  0.00  0.00  0.00  0.00  0.00
 2019 171     2     2  26.7     0  0.00     0  0.00     0     0 450.0     0     0  0.00  0.20 0.000  0.00  0.00  0.00  0.00  0.00  0.00  0.00  0.00  0.00
 2019 172     3     3  27.7     0  0.00     0  0.00     0     0 450.0     0     0  0.00  0.20 0.000  0.00  0.00  0.00  0.00  0.00  0.00  0.00  0.00  0.00
 2019 173     4     4  25.8     0  0.00     0  0.00     0     0 450.0     0     0  0.00  0.20 0.000  0.00  0.00  0.00  0.00  0.00  0.00  0.00  0.00  0.00
 2019 174     5     5  27.6     0  0.00     0  0.00     0     0 450.0     0     0  0.00  0.20 0.000  0.00  0.00  0.00  0.00  0.00  0.00  0.00  0.00  0.00
 2019 175     6     6  24.4     0  0.00     0  0.00     0     0 450.0     0     0  0.00  0.20 0.000  0.00  0.00  0.00  0.00  0.00  0.00  0.00  0.00  0.00
 2019 176     7     7  26.4     0  0.00     0  0.00     0     0 450.0     0     0  0.00  0.20 0.000  0.00  0.00  0.00  0.00  0.00  0.00  0.00  0.00  0.00
 2019 177     8     8  25.0     0  0.00     0  0.00     0     0 442.6     0     0  0.00  0.21 0.000  0.00  0.00  0.00  0.00  0.00  0.00  0.00  0.00  0.00
 2019 178     9     9  25.0 .0119  0.01     0  0.00     0     0 442.6     0     0  0.00  0.22 0.000  0.00  0.00  0.00  0.00  0.00  0.00  0.00  0.00  0.00
 2019 179    10    10  26.4 .0238  0.02     0  0.00     0     0 442.6     0     0  0.00  0.24 0.000  0.00  0.00  0.00  0.00  0.00  0.00  0.00  0.00  0.00
 2019 180    11    11  27.3 .0348  0.03     0  0.00     0     0 442.6     0     0  0.00  0.25 0.000  0.00  0.00  0.00  0.00  0.00  0.00  0.00  0.00  0.00
 2019 181    12    12  27.4 .0451  0.05 .0033  0.00     0 .0031 432.5     0     0480.71  0.26 0.002  0.00  0.00  0.00  0.00  0.00  0.00  0.00  0.00  0.00
 2019 182    13    13  25.8 .0554  0.06 .0091  0.00 .0033 .0086 419.2     0 .0071207.80  0.27 0.005  0.00  0.00  0.00  0.00  0.00  0.00  0.00  0.00  0.00
 2019 183    14    14  26.5 .0668  0.07 .0176  0.00 .0091 .0173 404.1     0 .0239123.25  0.29 0.008  0.01  0.01  0.01  0.00  0.00  0.00  0.00  0.00  0.00
 2019 184    15    15  26.8 .0777  0.08 .0268  0.00 .0176 .0291 389.0     0 .0522 86.05  0.30 0.011  0.01  0.01  0.01  0.00  0.00  0.00  0.00  0.00  0.00
 2019 185    16    16  26.8 .0884  0.09 .0414  0.00 .0268 .0468 369.6     0 .0923 61.46  0.31 0.016  0.01  0.01  0.01  0.01  0.00  0.00  0.00  0.00  0.00
 2019 186    17    17  25.7 0.099  0.10 .0590  0.00 .0414 .0660 349.6     0 0.148 46.61  0.33 0.020  0.02  0.01  0.01  0.01  0.00  0.00  0.00  0.00  0.00
 2019 187    18    18  27.2 0.111  0.11 .0797  0.00 .0590 .0902 329.6     0 0.222 37.19  0.34 0.025  0.02  0.02  0.02  0.01  0.00  0.00  0.00  0.00  0.00
 2019 188    19    19  27.2 0.121  0.12 0.102  0.00 .0797 0.115 310.1     0 0.318 30.95  0.35 0.031  0.03  0.02  0.02  0.02  0.01  0.00  0.00  0.00  0.00
 2019 189    20    20  23.8 0.131  0.13 0.122  0.00 0.102 0.134 297.5     0 0.431 27.07  0.36 0.036  0.03  0.03  0.02  0.02  0.01  0.00  0.00  0.00  0.00
 2019 190    21    21  26.4 0.143  0.14 0.149  0.00 0.122 0.159 281.3     0 0.562 23.66  0.37 0.042  0.04  0.03  0.03  0.02  0.01  0.00  0.00  0.00  0.00
 2019 191    22    22  26.0 0.154  0.15 0.171  0.00 0.146 0.182 274.7     0 0.718 21.78  0.38 0.047  0.04  0.03  0.03  0.03  0.02  0.00  0.00  0.00  0.00
 2019 192    23    23  24.4 0.165  0.17 0.198  0.00 0.171 0.204 263.4     0 0.889 19.95  0.39 0.053  0.05  0.04  0.03  0.03  0.02  0.01  0.00  0.00  0.00
 2019 193    24    24  25.5 0.177  0.18 0.223  0.00 0.198 0.226 260.8     0 1.080 18.87  0.41 0.058  0.05  0.04  0.04  0.03  0.02  0.01  0.00  0.00  0.00
 2019 194    25    25  26.5 0.189  0.19 0.248  0.00 0.223 0.249 260.8     0 1.303 18.07  0.41 0.064  0.06  0.05  0.04  0.04  0.03  0.01  0.00  0.00  0.00
 2019 195    26    26  26.0 0.200  0.20 0.275  0.00 0.248 0.271 260.8     0 1.551 17.40  0.42 0.070  0.06  0.05  0.05  0.04  0.03  0.02  0.00  0.00  0.00
 2019 196    27    27  26.2 0.211  0.21 0.303  0.00 0.275 0.294 260.8     0 1.826 16.82  0.43 0.075  0.07  0.06  0.05  0.04  0.03  0.02  0.00  0.00  0.00
 2019 197    28    28  27.5 0.222  0.22 0.335  0.00 0.303 0.322 259.3     0 2.143 16.28  0.44 0.082  0.07  0.06  0.05  0.05  0.04  0.02  0.00  0.00  0.00
 2019 198    29    29  27.4 0.232  0.23 0.362  0.00 0.335 0.343 259.3     0 2.503 15.91  0.45 0.087  0.08  0.06  0.06  0.05  0.04  0.02  0.00  0.00  0.00
 2019 199    30    30  26.5 0.243  0.24 0.394  0.00 0.362 0.367 259.3     0 2.889 15.55  0.46 0.093  0.08  0.07  0.06  0.05  0.04  0.03  0.00  0.00  0.00
 2019 200    31    31  24.8 0.254  0.25 0.423  0.00 0.394 0.384 259.3     0 3.297 15.24  0.47 0.099  0.09  0.07  0.07  0.06  0.05  0.03  0.00  0.00  0.00
 2019 201    32    32  26.0 0.265  0.27 0.453  0.00 0.423 0.404 259.3     0 3.737 14.98  0.48 0.105  0.09  0.08  0.07  0.06  0.05  0.03  0.01  0.00  0.00
 2019 202    33    33  26.4 0.277  0.28 0.484  0.00 0.453 0.424 259.3     0 4.198 14.75  0.49 0.111  0.10  0.08  0.07  0.07  0.05  0.04  0.01  0.00  0.00
 2019 203    34    34  25.7 0.288  0.29 0.516  0.00 0.484 0.443 259.3     0 4.673 14.54  0.50 0.117  0.10  0.09  0.08  0.07  0.06  0.04  0.01  0.00  0.00
 2019 204    35    35  26.8 0.299  0.30 0.549  0.00 0.516 0.464 259.3     0 5.184 14.36  0.51 0.123  0.11  0.09  0.08  0.07  0.06  0.04  0.01  0.00  0.00
 2019 205    36    36  27.7 0.310  0.31 0.583  0.00 0.549 0.486 259.3     0 5.746 14.20  0.52 0.129  0.11  0.10  0.09  0.08  0.06  0.05  0.01  0.00  0.00
 2019 206    37    37  24.8 0.320  0.32 0.619  0.00 0.583 0.504 259.3     0 6.325 14.04  0.53 0.135  0.12  0.10  0.09  0.08  0.07  0.05  0.01  0.00  0.00
 2019 207    38    38  25.8 0.332  0.33 0.654  0.00 0.619 0.523 259.3     0 6.926 13.90  0.54 0.142  0.12  0.10  0.09  0.08  0.07  0.05  0.02  0.00  0.00
 2019 208    39    39  25.9 0.343  0.34 0.690  0.00 0.654 0.543 259.3     0 7.558 13.78  0.55 0.148  0.13  0.11  0.10  0.09  0.07  0.06  0.02  0.00  0.00
 2019 209    40    40  26.1 0.354  0.35 0.727  0.00 0.690 0.562 259.3     0 8.210 13.67  0.56 0.154  0.13  0.11  0.10  0.09  0.08  0.06  0.02  0.00  0.00
 2019 210    41    41  26.2 0.366  0.37 0.765  0.00 0.727 0.582 259.3     0 8.879 13.57  0.57 0.161  0.14  0.12  0.11  0.10  0.08  0.06  0.02  0.00  0.00
 2019 211    42    42  26.5 0.376  0.38 0.803  0.00 0.765 0.602 259.3     0 9.605 13.48  0.58 0.167  0.14  0.12  0.11  0.10  0.08  0.07  0.03  0.00  0.00
 2019 212    43    43  26.2 0.386  0.39 0.842  0.00 0.803 0.620 259.3     0 10.37 13.40  0.59 0.173  0.15  0.13  0.12  0.10  0.09  0.07  0.03  0.00  0.00
 2019 213    44    44  25.8 0.395  0.39 0.880  0.00 0.842 0.637 259.3     0 11.17 13.33  0.60 0.176  0.16  0.13  0.12  0.11  0.09  0.07  0.03  0.00  0.00
 2019 214    45    45  25.1 0.406  0.41 0.918  0.00 0.880 0.655 259.3     0 12.00 13.27  0.61 0.182  0.16  0.14  0.12  0.11  0.09  0.08  0.03  0.00  0.00
 2019 215    46    46  25.8 0.418  0.42 0.956  0.00 0.918 0.674 259.3     0 12.87 13.22  0.62 0.188  0.17  0.14  0.13  0.12  0.10  0.08  0.04  0.00  0.00
 2019 216    47    47  26.0 0.429  0.43     1  0.00 0.956 0.694 259.3     0 13.76 13.17  0.63 0.194  0.17  0.15  0.13  0.12  0.10  0.08  0.04  0.01  0.00
 2019 217    48    48  25.8 0.440  0.44 1.039  0.00     1 0.712 259.3     0 14.68 13.11  0.63 0.201  0.18  0.15  0.14  0.12  0.10  0.09  0.04  0.01  0.00
 2019 218    49    49  25.8 0.451  0.45 1.078  0.00 1.033 0.729 259.3     0 15.63 13.07  0.64 0.207  0.18  0.16  0.14  0.13  0.11  0.09  0.04  0.01  0.00
 2019 219    50    50  24.2 0.462  0.46 1.116  0.00 1.078 0.743 259.3     0 16.60 13.04  0.65 0.213  0.19  0.16  0.14  0.13  0.11  0.09  0.05  0.01  0.00
 2019 220    51    51  24.7 0.474  0.47 1.154  0.00 1.116 0.759 259.3     0 17.58 13.01  0.66 0.219  0.19  0.16  0.15  0.13  0.11  0.09  0.05  0.01  0.00
 2019 221    52    52  25.6 0.486  0.49 1.196  0.00 1.154 0.778 259.3     0 18.57 12.97  0.67 0.226  0.20  0.17  0.15  0.14  0.12  0.10  0.05  0.01  0.00
 2019 222    53    53  26.4 0.498  0.50 1.239  0.00 1.196 0.798 259.3     0 19.61 12.94  0.68 0.232  0.20  0.17  0.16  0.14  0.12  0.10  0.05  0.02  0.00
 2019 223    54    54  26.5 0.509  0.51 1.283  0.00 1.239 0.818 259.3     0 20.70 12.92  0.69 0.238  0.21  0.18  0.16  0.15  0.13  0.10  0.06  0.02  0.00
 2019 224    55    55  24.9 0.519  0.52 1.327  0.00 1.283 0.836 259.3     0 21.85 12.89  0.70 0.245  0.21  0.18  0.17  0.15  0.13  0.11  0.06  0.02  0.00
 2019 225    56    56  26.2 0.531  0.53 1.371  0.00 1.327 0.853 259.3     0 23.08 12.88  0.71 0.251  0.22  0.19  0.17  0.15  0.13  0.11  0.06  0.02  0.00
 2019 226    57    57  26.5 0.542  0.54 1.415  0.00 1.366 0.871 259.3     0 24.37 12.87  0.72 0.257  0.23  0.19  0.17  0.16  0.14  0.11  0.06  0.03  0.00
 2019 227    58    58  25.3 0.553  0.55 1.458  0.00 1.415 0.887 259.3     0 25.68 12.87  0.72 0.263  0.23  0.20  0.18  0.16  0.14  0.12  0.06  0.03  0.00
 2019 228    59    59  25.3 0.565  0.57 1.501  0.00 1.458 0.903 259.3     0 27.02 12.86  0.73 0.269  0.24  0.20  0.18  0.16  0.14  0.12  0.07  0.03  0.00
 2019 229    60    60  26.4 0.577  0.58 1.549  0.00 1.501 0.923 259.3     0 28.42 12.86  0.74 0.275  0.24  0.21  0.19  0.17  0.15  0.12  0.07  0.04  0.00
 2019 230    61    61  25.7 0.587  0.59 1.598  0.00 1.549 0.941 259.3     0 29.86 12.85  0.75 0.282  0.25  0.21  0.19  0.17  0.15  0.13  0.07  0.04  0.00
 2019 231    62    62  25.3 0.598  0.60 1.654  0.00 1.598 0.959 259.3     0 31.31 12.84  0.76 0.289  0.25  0.22  0.19  0.18  0.15  0.13  0.07  0.04  0.00
 2019 232    63    63  26.8 0.610  0.61 1.701  0.00 1.647 0.977 259.3     0 32.83 12.84  0.77 0.295  0.26  0.22  0.20  0.18  0.16  0.13  0.08  0.04  0.00
 2019 233    64    64  26.4 0.621  0.62 1.742  0.00 1.701     1 259.3     0 34.41 12.85  0.78 0.300  0.26  0.22  0.20  0.18  0.16  0.14  0.08  0.05  0.00
 2019 234    65    65  25.8 0.632  0.63 1.789  0.00 1.742 1.008 259.3     0 36.01 12.86  0.79 0.306  0.27  0.23  0.21  0.19  0.16  0.14  0.08  0.05  0.00
 2019 235    66    66  25.6 0.643  0.64 1.835  0.00 1.789 1.025 259.3     0 37.65 12.87  0.80 0.312  0.27  0.23  0.21  0.19  0.17  0.14  0.08  0.05  0.00
 2019 236    67    67  25.5 0.654  0.65 1.880  0.00 1.835 1.041 259.3     0 39.33 12.88  0.81 0.318  0.28  0.24  0.21  0.20  0.17  0.15  0.09  0.05  0.00
 2019 237    68    68  25.6 0.666  0.67 1.941  0.00 1.880 1.060 259.3     0 41.03 12.87  0.82 0.326  0.28  0.24  0.22  0.20  0.17  0.15  0.09  0.06  0.00
 2019 238    69    69  25.9 0.677  0.68 1.992  0.00 1.934 1.077 259.3     0 42.76 12.88  0.82 0.332  0.29  0.25  0.22  0.20  0.18  0.15  0.09  0.06  0.00
 2019 239    70    70  24.7 0.689  0.69 2.035  0.00 1.992 1.089 259.3     0 44.50 12.89  0.83 0.338  0.29  0.25  0.23  0.21  0.18  0.16  0.09  0.06  0.01
 2019 240    71    71  26.3 0.701  0.70 2.083  0.00 2.035 1.106 259.3     0 46.30 12.90  0.84 0.343  0.30  0.26  0.23  0.21  0.18  0.16  0.10  0.06  0.01
 2019 241    72    72  26.9 0.712  0.71 2.131  0.00 2.083 1.124 259.3     0 48.19 12.92  0.85 0.349  0.30  0.26  0.23  0.21  0.19  0.16  0.10  0.07  0.01
 2019 242    73    73  26.9 0.722  0.72 2.184  0.00 2.131 1.142 259.3     0 50.16 12.93  0.86 0.355  0.31  0.26  0.24  0.22  0.19  0.16  0.10  0.07  0.01
 2019 243    74    74  25.8 0.733  0.73 2.236  0.00 2.178 1.159 259.3     0 52.16 12.95  0.87 0.361  0.32  0.27  0.24  0.22  0.19  0.17  0.10  0.07  0.01
 2019 244    75    75  26.2 0.744  0.74 2.285  0.00 2.236 1.176 259.3     0 54.26 12.97  0.88 0.367  0.32  0.27  0.25  0.22  0.20  0.17  0.10  0.07  0.01
 2019 245    76    76  26.1 0.755  0.76 2.322  0.00 2.285 1.190 259.3     0 56.38 13.01  0.89 0.371  0.32  0.28  0.25  0.23  0.20  0.17  0.11  0.08  0.01
 2019 246    77    77  27.0 0.766  0.77 2.365  0.00 2.322 1.208 259.3     0 58.52 13.03  0.90 0.376  0.33  0.28  0.25  0.23  0.20  0.17  0.11  0.08  0.01
 2019 247    78    78  27.1 0.777  0.78 2.411  0.00 2.365 1.226 259.3     0 60.71 13.06  0.91 0.381  0.33  0.28  0.26  0.23  0.20  0.18  0.11  0.08  0.01
 2019 248    79    79  26.0 0.787  0.79 2.448  0.00 2.405 1.240 259.3     0 62.95 13.10  0.92 0.386  0.34  0.29  0.26  0.24  0.21  0.18  0.11  0.08  0.01
 2019 249    80    80  26.9 0.799  0.80 2.482  0.00 2.448 1.255 259.3     0 65.25 13.14  0.93 0.390  0.34  0.29  0.26  0.24  0.21  0.18  0.11  0.08  0.01
 2019 250    81    81  27.0 0.809  0.81 2.513  0.00 2.482 1.270 259.3     0 67.63 13.18  0.94 0.393  0.34  0.29  0.26  0.24  0.21  0.18  0.11  0.09  0.01
 2019 251    82    82  26.0 0.820  0.82 2.549  0.00 2.513 1.287 259.3     0 70.01 13.22  0.95 0.397  0.35  0.30  0.27  0.24  0.21  0.19  0.12  0.09  0.02
 2019 252    83    83  25.5 0.831  0.83 2.588  0.00 2.549 1.303 259.3     0 72.37 13.25  0.96 0.402  0.35  0.30  0.27  0.25  0.22  0.19  0.12  0.09  0.02
 2019 253    84    84  26.1 0.843  0.84 2.618  0.00 2.583 1.317 259.3     0 74.78 13.30  0.97 0.405  0.35  0.30  0.27  0.25  0.22  0.19  0.12  0.09  0.02
 2019 254    85    85  26.0 0.854  0.85 2.646  0.00 2.618 1.331 259.3     0 77.16 13.34  0.98 0.408  0.36  0.30  0.27  0.25  0.22  0.19  0.12  0.09  0.02
 2019 255    86    86  26.8 0.865  0.86 2.672  0.00 2.646 1.346 259.3     0 79.55 13.38  0.98 0.411  0.36  0.31  0.27  0.25  0.22  0.19  0.12  0.09  0.02
 2019 256    87    87  27.6 0.876  0.88 2.707  0.01 2.667 1.365 259.3 1.267 82.01 13.41  0.99 0.415  0.36  0.31  0.28  0.25  0.22  0.19  0.12  0.10  0.02
 2019 257    88    88  27.0 0.886  0.89 2.735  0.01 2.688 1.380 259.3 3.592 84.55 13.43  1.00 0.418  0.36  0.31  0.28  0.26  0.22  0.20  0.12  0.10  0.02
 2019 258    89    89  26.6 0.896  0.90 2.761  0.03 2.707 1.394 259.3 6.936 87.12 13.45  1.01 0.421  0.37  0.31  0.28  0.26  0.23  0.20  0.13  0.10  0.02
 2019 259    90    90  25.6 0.907  0.91 2.785  0.04 2.719 1.408 259.3 10.31 89.72 13.46  1.02 0.423  0.37  0.31  0.28  0.26  0.23  0.20  0.13  0.10  0.02
 2019 260    91    91  26.7 0.919  0.92 2.807  0.06 2.720 1.423 259.3 15.89 92.34 13.46  1.03 0.426  0.37  0.32  0.28  0.26  0.23  0.20  0.13  0.10  0.02
 2019 261    92    92  27.1 0.929  0.93 2.837  0.09 2.720 1.441 259.3 21.56 94.98 13.45  1.04 0.429  0.37  0.32  0.29  0.26  0.23  0.20  0.13  0.10  0.02
 2019 262    93    93  25.5 0.940  0.94 2.861  0.11 2.725 1.454 259.3 26.72 97.59 13.45  1.05 0.432  0.38  0.32  0.29  0.26  0.23  0.20  0.13  0.10  0.03
 2019 263    94    94  26.8 0.951  0.95 2.882  0.13 2.727 1.469 259.3 32.79 100.3 13.44  1.06 0.434  0.38  0.32  0.29  0.27  0.23  0.20  0.13  0.10  0.03
 2019 264    95    95  26.6 0.962  0.96 2.906  0.16 2.724 1.484 259.3 38.71 103.0 13.43  1.07 0.436  0.38  0.32  0.29  0.27  0.24  0.21  0.13  0.11  0.03
 2019 265    96    96  27.0 0.973  0.97 2.929  0.19 2.717 1.499 259.3 45.38 105.8 13.43  1.08 0.438  0.38  0.33  0.29  0.27  0.24  0.21  0.13  0.11  0.03
 2019 266    97    97  27.8 0.983  0.98 2.950  0.21 2.716 1.514 259.3 52.31 108.7 13.42  1.09 0.440  0.38  0.33  0.29  0.27  0.24  0.21  0.13  0.11  0.03
 2019 267    98    98  27.5     1  0.99 2.970  0.24 2.708 1.530 259.3 59.34 111.6 13.42  1.10 0.442  0.38  0.33  0.30  0.27  0.24  0.21  0.13  0.11  0.03
 2019 268    99    99  27.7 1.009  1.01 2.989  0.27 2.696 1.546 259.3 67.06 114.5 13.41  1.11 0.444  0.39  0.33  0.30  0.27  0.24  0.21  0.13  0.11  0.03
 2019 269   100   100  26.5 1.016  1.02 3.004  0.30 2.686 1.551 259.3 74.22 117.5 13.41  1.12 0.445  0.39  0.33  0.30  0.27  0.24  0.21  0.14  0.11  0.03
 2019 270   101   101  25.9 1.024  1.02 3.036  0.33 2.674 1.558 259.3 80.72 120.4 13.40  1.13 0.448  0.39  0.33  0.30  0.27  0.24  0.21  0.14  0.11  0.03
 2019 271   102   102  26.9 1.031  1.03 3.074  0.36 2.676 1.566 259.3 88.16 123.4 13.37  1.14 0.451  0.39  0.33  0.30  0.28  0.24  0.21  0.14  0.11  0.03
[...]
 2020  81   277   277  31.5 2.021  2.02 6.793  6.39 0.385 2.221 179.6  1544 928.9 18.23  1.20 0.540  0.51  0.44  0.40  0.36  0.32  0.23  0.19  0.19  0.09
 2020  82   278   278  30.5 2.024  2.02 6.807  6.40 0.390 2.223 179.6  1546 933.4 18.31  1.20 0.539  0.51  0.44  0.40  0.36  0.32  0.23  0.18  0.19  0.09
 2020  83   279   279  30.7 2.028  2.03 6.834  6.41 0.392 2.225 179.6  1549 937.9 18.36  1.20 0.537  0.52  0.44  0.40  0.36  0.32  0.23  0.18  0.19  0.09
 2020  84   280   280  28.7 2.031  2.03 6.862  6.42 0.411 2.228 179.6  1552 942.3 18.43  1.20 0.538  0.52  0.44  0.40  0.36  0.32  0.23  0.18  0.19  0.09
 2020  85   281   281  29.9 2.036  2.04 6.898  6.43 0.430 2.230 179.6  1553 946.8 18.48  1.20 0.540  0.52  0.44  0.40  0.37  0.32  0.23  0.18  0.19  0.09
 2020  86   282   282  30.1 2.039  2.04 6.912  6.44 0.452 2.231 179.6  1555 951.3 18.57  1.20 0.540  0.52  0.44  0.40  0.37  0.32  0.23  0.18  0.19  0.09
 2020  87   283   283  31.5 2.043  2.04 6.939  6.45 0.466 2.234 179.6  1557 955.8 18.64  1.20 0.541  0.52  0.44  0.40  0.37  0.32  0.23  0.18  0.18  0.09
 2020  88   284   284  31.3 2.045  2.05 6.953  6.46 0.483 2.235 179.6  1559 960.2 18.72  1.20 0.541  0.52  0.44  0.40  0.37  0.32  0.23  0.18  0.18  0.09
 2020  89   285   285  31.7 2.048  2.05 6.973  6.47 0.480 2.236 179.6  1563 964.7 18.78  1.20 0.580  0.56  0.47  0.43  0.39  0.34  0.24  0.19  0.20  0.09
 2020  90   286   286  31.8 2.052  2.05 6.987  6.48 0.484 2.237 179.6  1565 969.2 18.87  1.20 0.540  0.52  0.44  0.40  0.37  0.32  0.22  0.18  0.18  0.09
 2020  91   287   287  30.8 2.056  2.06 7.014  6.49 0.494 2.240 179.6  1568 973.6 18.93  1.20 0.541  0.52  0.44  0.40  0.37  0.32  0.22  0.18  0.18  0.09
 2020  92   288   288  30.0 2.061  2.06 7.033  6.50 0.511 2.242 179.6  1570 978.1 19.01  1.20 0.542  0.52  0.44  0.40  0.37  0.32  0.22  0.18  0.18  0.09
 2020  93   289   289  30.6 2.067  2.07 7.047  6.51 0.517 2.244 179.6  1572 982.5 19.10  1.20 0.541  0.52  0.44  0.40  0.37  0.32  0.22  0.18  0.18  0.09
 2020  94   290   290  31.2 2.072  2.07 7.073  6.52 0.527 2.247 179.6  1574 987.0 19.16  1.20 0.542  0.52  0.44  0.40  0.37  0.32  0.22  0.18  0.18  0.09
 2020  95   291   291  28.9 2.076  2.08 7.110  6.53 0.546 2.250 179.6  1576 991.5 19.22  1.20 0.544  0.52  0.44  0.40  0.37  0.32  0.22  0.18  0.18  0.09
 2020  96   292   292  30.6 2.081  2.08 7.123  6.53 0.566 2.251 179.6  1577 995.9 19.31  1.20 0.543  0.52  0.44  0.40  0.37  0.32  0.22  0.18  0.18  0.09
 2020  97   293   293  30.7 2.085  2.09 7.150  6.54 0.582 2.254 179.6  1579  1000 19.38  1.20 0.544  0.52  0.44  0.40  0.37  0.32  0.23  0.18  0.18  0.09
 2020  98   294   294  30.8 2.089  2.09 7.183  6.55 0.599 2.257 179.6  1581  1005 19.44  1.20 0.545  0.52  0.44  0.40  0.37  0.32  0.23  0.18  0.18  0.09
 2020  99   295   295  29.6 2.093  2.09 7.196  6.56 0.619 2.258 179.6  1582  1009 19.53  1.20 0.544  0.52  0.44  0.40  0.37  0.32  0.23  0.18  0.18  0.09
 2020 100   296   296  29.5 2.096  2.10 7.222  6.56 0.631 2.260 179.6  1584  1014 19.60  1.20 0.543  0.52  0.44  0.40  0.37  0.32  0.23  0.18  0.18  0.09
 2020 101   297   297  30.4 2.100  2.10 7.248  6.58 0.646 2.263 179.6  1587  1018 19.67  1.20 0.540  0.52  0.44  0.40  0.37  0.32  0.23  0.18  0.18  0.09
 2020 102   298   298  28.5 2.106  2.11 7.270  6.58 0.666 2.264 179.6  1588  1023 19.75  1.20 0.540  0.52  0.44  0.40  0.37  0.32  0.23  0.18  0.18  0.09
 2020 103   299   299  30.7 2.112  2.11 7.282  6.59 0.673 2.266 179.6  1589  1027 19.84  1.20 0.540  0.52  0.44  0.40  0.37  0.32  0.23  0.18  0.18  0.09
 2020 104   300   300  31.5 2.118  2.12 7.310  6.59 0.688 2.270 179.6  1591  1032 19.91  1.20 0.540  0.52  0.44  0.40  0.37  0.32  0.23  0.18  0.18  0.09
 2020 105   301   301  31.9 2.123  2.12 7.323  6.60 0.708 2.272 179.6  1592  1036 20.00  1.20 0.540  0.52  0.44  0.40  0.36  0.32  0.23  0.18  0.18  0.09
 2020 106   302   302  31.9 2.128  2.13 7.348  6.61 0.717 2.275 179.6  1593  1040 20.08  1.20 0.540  0.52  0.44  0.40  0.36  0.32  0.23  0.18  0.18  0.09
 2020 107   303   303  31.5 2.132  2.13 7.379  6.61 0.735 2.278 179.6  1595  1045 20.14  1.20 0.541  0.52  0.44  0.40  0.36  0.32  0.23  0.18  0.18  0.09
 2020 108   304   304  30.9 2.136  2.14 7.404  6.62 0.751 2.281 179.6  1597  1049 20.21  1.20 0.541  0.52  0.44  0.40  0.36  0.32  0.23  0.18  0.17  0.09
 2020 109   305   305  31.0 2.140  2.14 7.429  6.63 0.776 2.284 179.6  1599  1054 20.29  1.20 0.539  0.52  0.44  0.40  0.36  0.32  0.23  0.18  0.17  0.09
 2020 110   306   306  30.0 2.144  2.14 7.456  6.63 0.795 2.287 179.6  1600  1058 20.37  1.20 0.536  0.52  0.44  0.40  0.36  0.32  0.23  0.18  0.17  0.09
 2020 111   307   307  30.0 2.148  2.15 7.481  6.64 0.813 2.289 179.6  1602  1063 20.44  1.20 0.532  0.52  0.44  0.40  0.37  0.32  0.23  0.18  0.17  0.09
 2020 112   308   308  31.3 2.153  2.15 7.505  6.65 0.834 2.293 179.6  1603  1067 20.52  1.20 0.532  0.52  0.44  0.40  0.36  0.32  0.23  0.18  0.17  0.09
 2020 113   309   309  30.7 2.159  2.16 7.532  6.65 0.852 2.296 179.6  1604  1072 20.59  1.20 0.533  0.52  0.44  0.40  0.36  0.32  0.23  0.18  0.17  0.09
 2020 114   310   310  30.1 2.164  2.16 7.544  6.66 0.866 2.298 179.6  1607  1076 20.68  1.20 0.532  0.52  0.44  0.40  0.36  0.32  0.23  0.18  0.17  0.09
 2020 115   311   311  30.4 2.169  2.17 7.568  6.67 0.874 2.301 179.6  1608  1081 20.76  1.20 0.532  0.51  0.44  0.40  0.36  0.32  0.23  0.18  0.17  0.09
 2020 116   312   312  30.5 2.174  2.17 7.595  6.68 0.892 2.304 179.6  1609  1085 20.83  1.20 0.533  0.51  0.44  0.40  0.36  0.32  0.23  0.18  0.17  0.09
 2020 117   313   313  29.8 2.178  2.18 7.619  6.68 0.913 2.308 179.6  1610  1089 20.92  1.20 0.533  0.51  0.44  0.40  0.36  0.32  0.23  0.18  0.17  0.09
 2020 118   314   314  29.5 2.184  2.18 7.643  6.68 0.934 2.311 179.6  1612  1094 21.00  1.20 0.533  0.51  0.44  0.40  0.36  0.32  0.24  0.18  0.17  0.09
 2020 119   315   315  30.4 2.189  2.19 7.668  6.69 0.953 2.314 179.6  1613  1098 21.07  1.20 0.533  0.51  0.44  0.39  0.36  0.32  0.24  0.18  0.17  0.09
 2020 120   316   316  31.6 2.193  2.19 7.692  6.70 0.972 2.317 179.6  1614  1103 21.16  1.20 0.534  0.51  0.44  0.39  0.36  0.32  0.24  0.18  0.17  0.09
 2020 121   317   317  29.9 2.197  2.20 7.716  6.70     1 2.320 179.6  1615  1107 21.24  1.20 0.534  0.51  0.44  0.39  0.36  0.32  0.24  0.18  0.17  0.09
 2020 122   318   318  29.9 2.203  2.20 7.739  6.71 1.010 2.323 179.6  1616  1112 21.32  1.20 0.534  0.51  0.44  0.39  0.36  0.32  0.24  0.18  0.17  0.09
 2020 123   319   319  29.8 2.208  2.21 7.773  6.71 1.029 2.326 179.6  1617  1116 21.38  1.20 0.535  0.51  0.44  0.39  0.36  0.32  0.24  0.18  0.17  0.09
 2020 124   320   320  28.6 2.214  2.21 7.784  6.72 1.044 2.328 179.6  1619  1121 21.48  1.20 0.534  0.51  0.44  0.39  0.36  0.32  0.24  0.18  0.17  0.09
 2020 125   321   321  29.0 2.220  2.22 7.808  6.73 1.058 2.331 179.6  1621  1125 21.56  1.20 0.535  0.51  0.44  0.39  0.36  0.32  0.24  0.18  0.17  0.09
 2020 126   322   322  30.1 2.226  2.23 7.841  6.73 1.076 2.335 179.6  1622  1129 21.62  1.20 0.536  0.51  0.44  0.39  0.36  0.32  0.24  0.18  0.17  0.09
 2020 127   323   323  30.6 2.232  2.23 7.852  6.74 1.092 2.336 179.6  1624  1134 21.72  1.20 0.535  0.51  0.44  0.39  0.36  0.32  0.24  0.18  0.17  0.09
 2020 128   324   324  29.9 2.237  2.24 7.875  6.75 1.106 2.340 179.6  1626  1138 21.80  1.20 0.535  0.51  0.44  0.39  0.36  0.32  0.24  0.18  0.17  0.09
 2020 129   325   325  29.3 2.241  2.24 7.907  6.75 1.123 2.342 179.6  1627  1143 21.87  1.20 0.536  0.51  0.44  0.39  0.36  0.32  0.24  0.18  0.17  0.09
 2020 130   326   326  28.5 2.246  2.25 7.918  6.76 1.141 2.344 179.6  1628  1147 21.97  1.20 0.535  0.51  0.44  0.39  0.36  0.32  0.24  0.18  0.17  0.09
 2020 131   327   327  29.5 2.251  2.25 7.941  6.76 1.158 2.347 179.6  1629  1152 22.06  1.20 0.535  0.51  0.44  0.39  0.36  0.32  0.24  0.18  0.17  0.09
 2020 132   328   328  29.1 2.256  2.26 7.964  6.76 1.181 2.349 179.6  1629  1156 22.15  1.20 0.536  0.51  0.44  0.39  0.36  0.32  0.24  0.18  0.17  0.09
 2020 133   329   329  29.4 2.260  2.26 7.986  6.76 1.204 2.351 179.6  1629  1160 22.25  1.20 0.536  0.51  0.44  0.39  0.36  0.32  0.24  0.18  0.17  0.08
 2020 134   330   330  28.5 2.265  2.26 7.997  6.76 1.215 2.352 179.6  1629  1165 22.36  1.20 0.535  0.51  0.43  0.39  0.36  0.32  0.24  0.18  0.17  0.08
 2020 135   331   331  29.8 2.269  2.27 8.019  6.76 1.236 2.355 179.6  1629  1169 22.45  1.20 0.535  0.51  0.43  0.39  0.36  0.32  0.24  0.18  0.17  0.08
 2020 136   332   332  29.6 2.272  2.27 8.031  6.78 1.235 2.356 179.6  1634  1174 22.53  1.20 0.534  0.51  0.43  0.39  0.36  0.32  0.24  0.18  0.16  0.08
 2020 137   333   333  30.0 2.277  2.28 8.049  6.81 1.222 2.357 179.6  1639  1178 22.59  1.20 0.534  0.51  0.43  0.39  0.36  0.32  0.24  0.18  0.16  0.08
 2020 138   334   334  30.9 2.281  2.28 8.060  6.84 1.202 2.358 179.6  1647  1182 22.66  1.20 0.533  0.51  0.43  0.39  0.36  0.31  0.24  0.18  0.16  0.08
 2020 139   335   335  30.4 2.284  2.28 8.082  6.87 1.187 2.361 179.6  1654  1187 22.71  1.20 0.533  0.51  0.43  0.39  0.36  0.31  0.24  0.18  0.16  0.08
 2020 140   336   336  29.4 2.287  2.29 8.093  6.89 1.189 2.362 179.6  1659  1191 22.79  1.20 0.532  0.50  0.43  0.39  0.36  0.31  0.24  0.18  0.16  0.08
 2020 141   337   337  29.4 2.290  2.29 8.104  6.91 1.178 2.363 179.6  1664  1195 22.88  1.20 0.548  0.52  0.44  0.40  0.37  0.32  0.25  0.19  0.17  0.09
 2020 142   338   338  29.4 2.296  2.30 8.124  6.93 1.173 2.365 179.6  1667  1200 22.95  1.20 0.531  0.50  0.43  0.39  0.36  0.31  0.24  0.18  0.16  0.08
 2020 143   339   339  29.8 2.302  2.30 8.135  6.95 1.165 2.366 179.6  1672  1204 23.03  1.20 0.530  0.50  0.43  0.39  0.35  0.31  0.24  0.18  0.16  0.08
 2020 144   340   340  30.4 2.308  2.31 8.146  6.97 1.166 2.368 179.6  1676  1208 23.12  1.20 0.529  0.50  0.43  0.38  0.35  0.31  0.24  0.18  0.16  0.08
 2020 145   341   341  28.2 2.314  2.31 8.167  6.99 1.159 2.370 179.6  1680  1213 23.19  1.20 0.529  0.50  0.43  0.38  0.35  0.31  0.24  0.18  0.16  0.08
 2020 146   342   342  28.1 2.321  2.32 8.178  6.99 1.163 2.371 179.6  1682  1217 23.30  1.20 0.528  0.50  0.43  0.38  0.35  0.31  0.24  0.18  0.16  0.08
 2020 147   343   343  30.4 2.328  2.33 8.199  7.01 1.167 2.375 179.6  1685  1221 23.37  1.20 0.528  0.50  0.42  0.38  0.35  0.31  0.24  0.18  0.16  0.08
 2020 148   344   344  29.5 2.333  2.33 8.229  7.03 1.170 2.378 179.6  1689  1226 23.42  1.20 0.528  0.50  0.42  0.38  0.35  0.31  0.24  0.18  0.16  0.08
 2020 149   345   345  28.3 2.340  2.34 8.240  7.05 1.175 2.380 179.6  1693  1230 23.51  1.20 0.527  0.50  0.42  0.38  0.35  0.31  0.24  0.18  0.16  0.08
 2020 150   346   346  28.6 2.346  2.35 8.261  7.07 1.168 2.383 179.6  1699  1234 23.57  1.20 0.527  0.50  0.42  0.38  0.35  0.31  0.24  0.18  0.16  0.08
 2020 151   347   347  29.2 2.353  2.35 8.289  7.09 1.168 2.387 179.6  1704  1239 23.62  1.20 0.527  0.50  0.42  0.38  0.35  0.31  0.24  0.18  0.16  0.08
 2020 152   348   348  30.0 2.359  2.36 8.300  7.11 1.170 2.389 179.6  1708  1243 23.71  1.20 0.526  0.49  0.42  0.38  0.35  0.31  0.24  0.18  0.16  0.08
 2020 153   349   349  26.3 2.365  2.37 8.321  7.13 1.165 2.391 179.6  1714  1247 23.77  1.20 0.526  0.49  0.42  0.38  0.35  0.31  0.24  0.18  0.16  0.08
 2020 154   350   350  28.0 2.373  2.37 8.346  7.16 1.156 2.395 179.6  1720  1252 23.81  1.20 0.526  0.49  0.42  0.38  0.35  0.31  0.24  0.18  0.16  0.08
 2020 155   351   351  29.0 2.380  2.38 8.367  7.18 1.158 2.398 179.6  1725  1256 23.88  1.20 0.525  0.49  0.42  0.38  0.35  0.31  0.24  0.18  0.16  0.08
 2020 156   352   352  28.2 2.386  2.39 8.388  7.20 1.166 2.401 179.6  1729  1260 23.95  1.20 0.525  0.49  0.42  0.38  0.35  0.31  0.24  0.18  0.16  0.08
 2020 157   353   353  29.1 2.393  2.39 8.410  7.23 1.160 2.405 179.6  1734  1264 24.00  1.20 0.525  0.49  0.42  0.38  0.35  0.31  0.24  0.18  0.16  0.08
 2020 158   354   354  27.6 2.399  2.40 8.431  7.24 1.165 2.408 179.6  1738  1269 24.08  1.20 0.524  0.49  0.42  0.38  0.35  0.31  0.24  0.18  0.16  0.08
 2020 159   355   355  28.0 2.406  2.41 8.451  7.26 1.171 2.411 179.6  1742  1273 24.15  1.20 0.524  0.49  0.42  0.38  0.35  0.31  0.24  0.18  0.16  0.08
 2020 160   356   356  27.9 2.413  2.41 8.471  7.28 1.175 2.414 179.6  1746  1277 24.22  1.20 0.523  0.49  0.42  0.38  0.35  0.31  0.24  0.18  0.16  0.08
 2020 161   357   357  28.0 2.420  2.42 8.499  7.29 1.183 2.417 179.6  1748  1281 24.29  1.20 0.523  0.49  0.42  0.38  0.35  0.31  0.24  0.18  0.16  0.08
 2020 162   358   358  28.2 2.427  2.43 8.509  7.30 1.186 2.419 179.6  1752  1286 24.38  1.20 0.522  0.49  0.42  0.37  0.34  0.30  0.24  0.18  0.16  0.08
 2020 163   359   359  26.5 2.434  2.43 8.529  7.32 1.189 2.422 179.6  1756  1290 24.46  1.20 0.522  0.49  0.42  0.37  0.34  0.30  0.24  0.18  0.16  0.08
 2020 164   360   360  27.2 2.442  2.44 8.551  7.34 1.189 2.425 179.6  1760  1294 24.52  1.20 0.521  0.49  0.42  0.37  0.34  0.30  0.24  0.18  0.16  0.08
 2020 165   361   361  27.3 2.449  2.45 8.571  7.37 1.177 2.428 179.6  1768  1298 24.57  1.20 0.521  0.49  0.41  0.37  0.34  0.30  0.24  0.18  0.16  0.08
 2020 166   362   362  27.9 2.456  2.46 8.590  7.40 1.173 2.431 179.6  1773  1303 24.63  1.20 0.521  0.49  0.41  0.37  0.34  0.30  0.24  0.18  0.16  0.08
 2020 167   363   363  29.2 2.463  2.46 8.610  7.42 1.173 2.435 179.6  1778  1307 24.71  1.20 0.520  0.48  0.41  0.37  0.34  0.30  0.24  0.18  0.16  0.08
 2020 168   364   364  28.6 2.469  2.47 8.636  7.45 1.159 2.438 179.6  1786  1311 24.74  1.20 0.520  0.48  0.41  0.37  0.34  0.30  0.24  0.18  0.16  0.08
 2020 169   365   365  28.5 2.476  2.48 8.646  7.47 1.160 2.440 179.6  1790  1315 24.84  1.20 0.519  0.48  0.41  0.37  0.34  0.30  0.24  0.18  0.16  0.08
 2020 170   366   366  27.0 2.483  2.48 8.665  7.48 1.162 2.443 179.6  1793  1320 24.92  1.20 0.518  0.48  0.41  0.37  0.34  0.30  0.24  0.18  0.16  0.08
 2020 171   367   367  28.0 2.490  2.49 8.686  7.50 1.166 2.446 179.6  1797  1324 24.99  1.20 0.518  0.48  0.41  0.37  0.34  0.30  0.24  0.18  0.16  0.08
 2020 172   368   368  28.2 2.497  2.50 8.705  7.52 1.164 2.449 179.6  1802  1328 25.06  1.20 0.517  0.48  0.41  0.37  0.34  0.30  0.24  0.18  0.16  0.08
 2020 173   369   369  27.6 2.504  2.50 8.724  7.54 1.167 2.452 179.6  1805  1332 25.14  1.20 0.517  0.48  0.41  0.37  0.34  0.30  0.24  0.18  0.16  0.08
 2020 174   370   370  26.6 2.511  2.51 8.743  7.55 1.171 2.455 179.6  1809  1336 25.22  1.20 0.516  0.48  0.41  0.37  0.34  0.30  0.24  0.18  0.16  0.08
 2020 175   371   371  27.5 2.518  2.52 8.765  7.58 1.165 2.458 179.6  1815  1341 25.27  1.20 0.516  0.48  0.41  0.37  0.34  0.30  0.24  0.18  0.16  0.08
 2020 176   372   372  26.8 2.526  2.53 8.775  7.60 1.160 2.460 179.6  1820  1345 25.36  1.20 0.514  0.48  0.41  0.37  0.34  0.30  0.24  0.18  0.16  0.08
 2020 177   373   373  27.2 2.533  2.53 8.794  7.62 1.156 2.463 179.6  1824  1349 25.44  1.20 0.514  0.48  0.41  0.37  0.34  0.30  0.24  0.18  0.16  0.08
 2020 178   374   374  26.5 2.540  2.54 8.813  7.63 1.160 2.466 179.6  1828  1353 25.51  1.20 0.513  0.48  0.41  0.37  0.34  0.30  0.24  0.18  0.16  0.08
 2020 179   375   375  27.4 2.548  2.55 8.835  7.66 1.150 2.469 179.6  1834  1357 25.56  1.20 0.513  0.48  0.41  0.37  0.34  0.30  0.24  0.18  0.16  0.08
 2020 180   376   376  26.6 2.555  2.56 8.845  7.68 1.150 2.470 179.6  1838  1361 25.65  1.20 0.512  0.47  0.40  0.36  0.33  0.30  0.24  0.18  0.16  0.08
 2020 181   377   377  26.0 2.563  2.56 8.863  7.70 1.149 2.473 179.6  1842  1365 25.72  1.20 0.512  0.47  0.40  0.36  0.33  0.30  0.24  0.18  0.16  0.08
 2020 182   378   378  27.2 2.571  2.57 8.882  7.71 1.151 2.476 179.6  1845  1369 25.79  1.20 0.511  0.47  0.40  0.36  0.33  0.30  0.24  0.18  0.16  0.08
 2020 183   379   379  28.1 2.578  2.58 8.904  7.74 1.141 2.479 179.6  1852  1373 25.83  1.20 0.511  0.47  0.40  0.36  0.33  0.30  0.24  0.18  0.16  0.08
 2020 184   380   380  28.5 2.585  2.58 8.913  7.76 1.143 2.481 179.6  1856  1377 25.93  1.20 0.510  0.47  0.40  0.36  0.33  0.29  0.24  0.17  0.16  0.08
 2020 185   381   381  26.7 2.591  2.59 8.931  7.77 1.141 2.484 179.6  1859  1381 26.01  1.20 0.509  0.47  0.40  0.36  0.33  0.29  0.24  0.17  0.16  0.08
 2020 186   382   382  25.2 2.599  2.60 8.949  7.79 1.146 2.487 179.6  1862  1385 26.09  1.20 0.509  0.47  0.40  0.36  0.33  0.29  0.24  0.17  0.16  0.08
 2020 187   383   383  26.8 2.607  2.61 8.971  7.81 1.138 2.490 179.6  1868  1389 26.14  1.20 0.508  0.47  0.40  0.36  0.33  0.29  0.24  0.17  0.16  0.08
 2020 188   384   384  27.3 2.615  2.61 8.980  7.83 1.142 2.491 179.6  1872  1393 26.25  1.20 0.507  0.47  0.40  0.36  0.33  0.29  0.24  0.17  0.16  0.08
 2020 189   385   385  26.6 2.622  2.62 8.998  7.84 1.140 2.494 179.6  1875  1397 26.32  1.20 0.507  0.47  0.40  0.36  0.33  0.29  0.24  0.17  0.16  0.08
 2020 190   386   386  27.0 2.629  2.63 9.016  7.86 1.139 2.497 179.6  1879  1401 26.38  1.20 0.506  0.47  0.40  0.36  0.33  0.29  0.23  0.17  0.16  0.08
 2020 191   387   387  27.0 2.637  2.64 9.036  7.88 1.131 2.500 179.6  1885  1405 26.43  1.20 0.506  0.47  0.40  0.36  0.33  0.29  0.23  0.17  0.16  0.08
 2020 192   388   388  24.8 2.644  2.64 9.045  7.90 1.137 2.501 179.6  1888  1409 26.53  1.20 0.505  0.46  0.40  0.36  0.33  0.29  0.23  0.17  0.16  0.08
 2020 193   389   389  25.5 2.652  2.65 9.063  7.91 1.135 2.504 179.6  1891  1413 26.60  1.20 0.505  0.46  0.40  0.36  0.33  0.29  0.23  0.17  0.16  0.08
 2020 194   390   390  26.5 2.660  2.66 9.080  7.93 1.135 2.507 179.6  1895  1417 26.66  1.20 0.504  0.46  0.40  0.36  0.33  0.29  0.23  0.17  0.16  0.08
 2020 195   391   391  26.8 2.668  2.67 9.098  7.95 1.130 2.510 179.6  1901  1420 26.71  1.20 0.504  0.46  0.40  0.36  0.33  0.29  0.23  0.17  0.16  0.08
 2020 196   392   392  25.5 2.676  2.68 9.114  7.96 1.135 2.511 179.6  1903  1424 26.78  1.20 0.504  0.46  0.40  0.36  0.33  0.29  0.23  0.17  0.16  0.08
 2020 197   393   393  25.8 2.684  2.68 9.122  7.98 1.131 2.513 179.6  1906  1427 26.87  1.20 0.503  0.46  0.39  0.35  0.33  0.29  0.23  0.17  0.16  0.08
 2020 198   394   394  26.5 2.692  2.69 9.140  7.99 1.133 2.515 179.6  1910  1431 26.93  1.20 0.502  0.46  0.39  0.35  0.33  0.29  0.23  0.17  0.16  0.08
 2020 199   395   395  26.0 2.699  2.70 9.157  8.00 1.138 2.518 179.6  1913  1435 27.00  1.20 0.502  0.46  0.39  0.35  0.33  0.29  0.23  0.17  0.16  0.08
 2020 200   396   396  26.5 2.707  2.71 9.168  8.02 1.141 2.520 179.6  1916  1438 27.08  1.20 0.501  0.46  0.39  0.35  0.33  0.29  0.23  0.17  0.16  0.08
 2020 201   397   397  26.3 2.715  2.71 9.177  8.03 1.136 2.521 179.6  1919  1442 27.17  1.20 0.500  0.46  0.39  0.35  0.32  0.29  0.23  0.17  0.16  0.08
 2020 202   398   398  25.8 2.722  2.72 9.194  8.04 1.134 2.524 179.6  1922  1446 27.24  1.20 0.500  0.46  0.39  0.35  0.32  0.29  0.23  0.17  0.16  0.08
 2020 203   399   399  26.5 2.730  2.73 9.211  8.06 1.138 2.527 179.6  1925  1449 27.31  1.20 0.500  0.46  0.39  0.35  0.32  0.29  0.23  0.17  0.16  0.08
 2020 204   400   400  27.0 2.738  2.74 9.227  8.06 1.147 2.530 179.6  1927  1453 27.40  1.20 0.499  0.46  0.39  0.35  0.32  0.29  0.23  0.17  0.16  0.08
 2020 205   401   401  25.2 2.745  2.75 9.243  8.07 1.159 2.531 179.6  1928  1457 27.48  1.20 0.499  0.46  0.39  0.35  0.32  0.29  0.23  0.17  0.16  0.08
 2020 206   402   402  26.2 2.754  2.75 9.252  8.08 1.154 2.533 179.6  1931  1461 27.58  1.20 0.498  0.46  0.39  0.35  0.32  0.29  0.23  0.17  0.16  0.08
 2020 207   403   403  25.8 2.761  2.76 9.268  8.09 1.158 2.535 179.6  1934  1464 27.65  1.20 0.497  0.45  0.39  0.35  0.32  0.29  0.23  0.17  0.16  0.08
 2020 208   404   404  26.8 2.769  2.77 9.285  8.11 1.161 2.538 179.6  1937  1468 27.73  1.20 0.497  0.45  0.39  0.35  0.32  0.28  0.23  0.17  0.16  0.08
 2020 209   405   405  25.0 2.777  2.78 9.294  8.12 1.166 2.540 179.6  1940  1472 27.81  1.20 0.496  0.45  0.39  0.35  0.32  0.28  0.23  0.17  0.16  0.08
