$GROWTH FACTOR OUTPUTS FILE

*DSSAT Cropping System Model Ver. 4.8.0.010 -develop  AUG 03, 2021 18:13:11

*RUN   1        : IITA-TMS-IBA000070        CSYCA048 UYAB1901    1
 MODEL          : CSYCA048 - Cassava
 EXPERIMENT     : UYAB1901 CS UYT_GXE
 DATA PATH      : C:\DSSAT48\CASSAVA\
 TREATMENT  1   : IITA-TMS-IBA000070        CSYCA048
  
!........DATES.......  ...TEMP... STAGE  ...PHENOLOGY....  ....PHOTOSYNTHESIS....  .....GROWTH..... H2O STRESS DETERMINANTS .N STRESS DETERMINANTS.
@YEAR DOY   DAS   DAP TMEAN TCDIF  GSTD    DU DYLFD  TFPD  WFPD  NFPD CO2FD RSFPD  TFGD  WFGD  NFGD WAVRD WUPRD  SWXD  EOPD  SNXD LN%RD SN%RD RN%RD            
 2019 169     0     0  28.9 -99.0     0   0.0  0.00  0.00  0.00  0.00  0.00  0.00  0.00  0.00  0.00 99.90  1.00  26.5  0.00   0.0  0.00  0.00  0.00
 2019 170     1     1  29.0 -29.0     0   0.0  0.00  0.00  0.00  0.00  0.00  0.00  0.00  0.00  0.00 99.90  1.00  31.1  0.00   0.0  0.00  0.00  0.00
 2019 171     2     2  26.7 -26.7     0   0.0  0.00  0.00  0.00  0.00  0.00  0.00  0.00  0.00  0.00 99.90  1.00  28.0  0.00   0.0  0.00  0.00  0.00
 2019 172     3     3  27.7 -27.7     0   0.0  0.00  0.00  0.00  0.00  0.00  0.00  0.00  0.00  0.00 99.90  1.00  25.2  0.00   0.0  0.00  0.00  0.00
 2019 173     4     4  25.8 -25.8     0   0.0  0.00  0.00  0.00  0.00  0.00  0.00  0.00  0.00  0.00 99.90  1.00  28.1  0.00   0.0  0.00  0.00  0.00
 2019 174     5     5  27.6 -27.6     0   0.0  0.00  0.00  0.00  0.00  0.00  0.00  0.00  0.00  0.00 99.90  1.00  25.9  0.00   0.0  0.00  0.00  0.00
 2019 175     6     6  24.4 -24.4     0   0.0  0.00  0.00  0.00  0.00  0.00  0.00  0.00  0.00  0.00 99.90  1.00  32.9  0.00   0.0  0.00  0.00  0.00
 2019 176     7     7  26.4 -26.4     0   0.0  0.00  0.00  0.00  0.00  0.00  0.00  0.00  0.00  0.00 99.90  1.00  27.4  0.00   0.0  0.00  0.00  0.00
 2019 177     8     8  25.0 -25.0     0   0.0  0.00  0.00  0.00  0.00 -0.06  0.00  0.00  0.00  0.00 99.90  1.00  27.5  0.00   0.0  1.00  1.00  1.00
 2019 178     9     9  25.0 -25.0 .0179   5.0  0.00  0.00  0.00  0.00 -0.06  0.00  0.00  0.00  0.00 99.90  1.00  27.8  0.00   0.0  1.00  1.00  1.00
 2019 179    10    10  26.4 -26.4 .0357   5.0  0.00  0.00  0.00  0.00 -0.06  0.00  0.00  0.00  0.00 99.90  1.00  28.1  0.00   0.0  1.00  1.00  1.00
 2019 180    11    11  27.3 -27.3 .0522   4.6  0.00  0.00  0.00  0.00 -0.06  0.00  0.00  0.00  0.00 99.90  1.00  28.5  0.00   0.0  1.00  1.00  1.00
 2019 181    12    12  27.4 -27.4 .0677   4.3  0.00  0.00  0.00  0.00 -0.06  0.00  0.00  0.00  0.00 99.90  1.00  36.2  0.00   0.0  1.00  1.00  1.00
 2019 182    13    13  25.8 -25.8 .0831   4.3  0.00  0.00  0.00  0.00 -0.06  0.00  0.00  0.00  0.00 99.90  1.00  38.5  0.00   0.0  1.00  1.00  1.00
 2019 183    14    14  26.5 -26.5 0.100   4.8  0.00  0.00  0.00  0.00 -0.06  0.00  0.00  0.00  0.00 99.90  1.00  36.6  0.01   0.0  1.00  1.00  1.00
 2019 184    15    15  26.8 -26.8 0.117   4.6  0.00  0.00  0.00  0.00 -0.06  0.00  0.00  0.00  0.00 99.90  1.00  39.1  0.03   0.0  1.00  1.00  1.00
 2019 185    16    16  26.8 -26.8 0.133   4.5  0.00  0.00  0.00  0.00 -0.06  0.00  0.00  0.00  0.00 99.90  1.00  51.4  0.06   0.0  1.00  1.00  1.00
 2019 186    17    17  25.7 -25.7 0.149   4.5  0.00  0.00  0.00  0.00 -0.06  0.00  0.00  0.00  0.00 99.90  1.00  53.3  0.09   0.0  1.00  1.00  1.00
 2019 187    18    18  27.2 -27.2 0.166   4.8  0.00  0.00  0.00  0.00 -0.06  0.00  0.00  0.00  0.00 99.90  1.00  50.0  0.14   0.0  1.00  1.00  1.00
 2019 188    19    19  27.2 -27.2 0.181   4.4  0.00  0.00  0.00  0.00 -0.06  0.00  0.00  0.00  0.00 99.90  1.00  56.4  0.18   0.0  1.00  1.00  1.00
 2019 189    20    20  23.8 -23.8 0.197   4.4  0.00  0.08  0.00  0.00 -0.06  0.00  0.01  0.00  0.00 99.90  1.00  54.8  0.24   0.0  1.00  1.00  1.00
 2019 190    21    21  26.4 -26.4 0.215   5.0  0.00  0.00  0.00  0.00 -0.06  0.00  0.00  0.00  0.00 99.90  1.00  52.0  0.32   0.0  1.00  1.00  1.00
 2019 191    22    22  26.0 -26.0 0.231   4.6  0.00  0.00  0.00  0.00 -0.06  0.00  0.00  0.00  0.00 99.90  1.00  50.5  0.40   0.0  1.00  1.00  1.00
 2019 192    23    23  24.4 -24.4 0.248   4.7  0.00  0.04  0.00  0.00 -0.06  0.00  0.00  0.00  0.00 99.90  1.00  51.0  0.40   0.0  1.00  1.00  1.00
 2019 193    24    24  25.5 -25.5 0.266   5.0  0.00  0.00  0.00  0.00 -0.06  0.00  0.00  0.00  0.00 99.90  1.00  65.4  0.50   0.0  1.00  1.00  1.00
 2019 194    25    25  26.5 -26.5 0.283   4.9  0.00  0.00  0.00  0.00 -0.06  0.00  0.00  0.00  0.00 86.88  1.00  56.4  0.65   0.0  1.00  1.00  1.00
 2019 195    26    26  26.0 -26.0 0.300   4.6  0.00  0.00  0.00  0.00 -0.06  0.00  0.00  0.00  0.00 99.70  1.00  68.9  0.69   0.0  1.00  1.00  1.00
 2019 196    27    27  26.2 -26.2 0.317   4.7  0.00  0.00  0.00  0.00 -0.06  0.00  0.00  0.00  0.00 94.55  1.00  70.5  0.75   0.0  1.00  1.00  1.00
 2019 197    28    28  27.5 -27.5 0.333   4.7  0.00  0.00  0.00  0.00 -0.06  0.00  0.00  0.00  0.00 74.05  1.00  65.5  0.88   0.0  1.00  1.00  1.00
 2019 198    29    29  27.4 -27.4 0.349   4.3  0.00  0.00  0.00  0.00 -0.06  0.00  0.00  0.00  0.00 62.80  1.00  62.5  1.00   0.0  1.00  1.00  1.00
 2019 199    30    30  26.5 -26.5 0.364   4.3  0.00  0.00  0.00  0.00 -0.06  0.00  0.00  0.00  0.00 68.02  1.00  58.9  0.87   0.0  1.00  1.00  1.00
 2019 200    31    31  24.8 -24.8 0.380   4.6  0.00  0.02  0.00  0.00 -0.06  0.00  0.00  0.00  0.00 73.72  1.00  69.1  0.94   0.0  1.00  1.00  1.00
 2019 201    32    32  26.0 -26.0 0.398   5.0  0.00  0.00  0.00  0.00 -0.06  0.00  0.00  0.00  0.00 55.98  1.00  66.9  1.20   0.0  1.00  1.00  1.00
 2019 202    33    33  26.4 -26.4 0.415   4.7  0.00  0.00  0.00  0.00 -0.06  0.00  0.00  0.00  0.00 49.63  1.00  63.1  1.27   0.0  1.00  1.00  1.00
 2019 203    34    34  25.7 -25.7 0.431   4.6  0.00  0.00  0.00  0.00 -0.06  0.00  0.00  0.00  0.00 54.06  1.00  63.5  1.18   0.0  1.00  1.00  1.00
 2019 204    35    35  26.8 -26.8 0.449   4.8  0.00  0.00  0.00  0.00 -0.06  0.00  0.00  0.00  0.00 46.07  1.00  62.6  1.36   0.0  1.00  1.00  1.00
 2019 205    36    36  27.7 -27.7 0.465   4.5  0.00  0.00  0.00  0.00 -0.06  0.00  0.00  0.00  0.00 45.89  1.00  61.4  1.34   0.0  1.00  1.00  1.00
 2019 206    37    37  24.8 -24.8 0.480   4.2  0.00  0.01  0.00  0.00 -0.06  0.00  0.00  0.00  0.00 51.15  1.00  66.8  1.31   0.0  1.00  1.00  1.00
 2019 207    38    38  25.8 -25.8 0.498   5.0  0.00  0.00  0.00  0.00 -0.06  0.00  0.00  0.00  0.00 49.71  1.00  65.2  1.31   0.0  1.00  1.00  1.00
 2019 208    39    39  25.9 -25.9 0.515   4.8  0.00  0.00  0.00  0.00 -0.06  0.00  0.00  0.00  0.00 43.89  1.00  63.4  1.45   0.0  1.00  1.00  1.00
 2019 209    40    40  26.1 -26.1 0.532   4.8  0.00  0.00  0.00  0.00 -0.06  0.00  0.00  0.00  0.00 39.13  1.00  61.7  1.58   0.0  1.00  1.00  1.00
 2019 210    41    41  26.2 -26.2 0.548   4.7  0.00  0.00  0.00  0.00 -0.06  0.00  0.00  0.00  0.00 37.99  1.00  60.1  1.58   0.0  1.00  1.00  1.00
 2019 211    42    42  26.5 -26.5 0.564   4.6  0.00  0.00  0.00  0.00 -0.06  0.00  0.00  0.05  0.00 37.31  1.00  58.7  1.57   0.0  1.00  1.00  1.00
 2019 212    43    43  26.2 -26.2 0.579   4.6  0.00  0.00  0.00  0.00 -0.06  0.00  0.00  0.11  0.00 33.44  1.00  57.2  1.71   0.0  1.00  1.00  1.00
 2019 213    44    44  25.8 -25.8 0.592   4.6  0.00  0.00  0.00  0.00 -0.06  0.00  0.00  0.17  0.00 34.11  1.00  62.9  1.84   0.0  1.00  1.00  1.00
 2019 214    45    45  25.1 -25.1 0.609   4.8  0.00  0.00  0.00  0.00 -0.06  0.00  0.00  0.02  0.00 37.29  1.00  67.0  1.80   0.0  1.00  1.00  1.00
 2019 215    46    46  25.8 -25.8 0.627   5.0  0.00  0.00  0.00  0.00 -0.06  0.00  0.00  0.00  0.00 35.18  1.00  64.7  1.84   0.0  1.00  1.00  1.00
 2019 216    47    47  26.0 -26.0 0.644   4.8  0.00  0.00  0.00  0.00 -0.06  0.00  0.00  0.00  0.00 29.85  1.00  62.4  2.09   0.0  1.00  1.00  1.00
 2019 217    48    48  25.8 -25.8 0.659   4.7  0.00  0.00  0.00  0.00 -0.06  0.00  0.00  0.08  0.00 38.03  1.00  77.0  2.02   0.0  1.00  1.00  1.00
 2019 218    49    49  25.8 -25.8 0.677   4.8  0.00  0.00  0.00  0.00 -0.06  0.00  0.00  0.00  0.00 40.25  1.00  82.3  2.05   0.0  1.00  1.00  1.00
 2019 219    50    50  24.2 -24.2 0.694   4.8  0.00  0.06  0.00  0.00 -0.06  0.00  0.00  0.00  0.00 44.65  1.00  87.1  1.95   0.0  1.00  1.00  1.00
 2019 220    51    51  24.7 -24.7 0.711   5.0  0.00  0.02  0.00  0.00 -0.06  0.00  0.00  0.00  0.00 40.83  1.00  85.0  2.08   0.0  1.00  1.00  1.00
 2019 221    52    52  25.6 -25.6 0.729   5.0  0.00  0.00  0.00  0.00 -0.06  0.00  0.00  0.00  0.00 36.34  1.00  83.0  2.28   0.0  1.00  1.00  1.00
 2019 222    53    53  26.4 -26.4 0.746   4.8  0.00  0.00  0.00  0.00 -0.06  0.00  0.00  0.00  0.00 33.14  1.00  80.1  2.42   0.0  1.00  1.00  1.00
 2019 223    54    54  26.5 -26.5 0.763   4.6  0.00  0.00  0.00  0.00 -0.06  0.00  0.00  0.00  0.00 36.38  1.00  83.7  2.30   0.0  1.00  1.00  1.00
 2019 224    55    55  24.9 -24.9 0.779   4.6  0.00  0.01  0.00  0.00 -0.06  0.00  0.00  0.00  0.00 34.25  1.00  81.7  2.38   0.0  1.00  1.00  1.00
 2019 225    56    56  26.2 -26.2 0.797   5.0  0.00  0.00  0.00  0.00 -0.06  0.00  0.00  0.00  0.00 31.25  1.00  80.3  2.57   0.0  1.00  1.00  1.00
 2019 226    57    57  26.5 -26.5 0.814   4.7  0.00  0.00  0.00  0.00 -0.06  0.00  0.00  0.00  0.00 28.88  1.00  77.2  2.67   0.0  1.00  1.00  1.00
 2019 227    58    58  25.3 -25.3 0.830   4.6  0.00  0.00  0.00  0.00 -0.06  0.00  0.00  0.00  0.00 29.60  1.00  76.1  2.57   0.0  1.00  1.00  1.00
 2019 228    59    59  25.3 -25.3 0.848   4.9  0.00  0.00  0.00  0.00 -0.06  0.00  0.00  0.00  0.00 29.52  1.00  74.7  2.53   0.0  1.00  1.00  1.00
 2019 229    60    60  26.4 -26.4 0.865   4.9  0.00  0.00  0.00  0.00 -0.06  0.00  0.00  0.00  0.00 26.35  1.00  71.7  2.72   0.0  1.00  1.00  1.00
 2019 230    61    61  25.7 -25.7 0.880   4.6  0.00  0.00  0.00  0.00 -0.06  0.00  0.00  0.08  0.00 34.43  1.00  91.9  2.67   0.0  1.00  1.00  1.00
 2019 231    62    62  25.3 -25.3 0.897   4.8  0.00  0.00  0.00  0.00 -0.06  0.00  0.00  0.00  0.00 34.85  1.00  90.6  2.60   0.0  1.00  1.00  1.00
 2019 232    63    63  26.8 -26.8 0.915   4.9  0.00  0.00  0.00  0.00 -0.06  0.00  0.00  0.00  0.00 30.70  1.00  87.7  2.86   0.0  1.00  1.00  1.00
 2019 233    64    64  26.4 -26.4 0.931   4.5  0.00  0.00  0.00  0.00 -0.06  0.00  0.00  0.00  0.00 38.36  1.00 105.0  2.74   0.0  1.00  1.00  1.00
 2019 234    65    65  25.8 -25.8 0.947   4.6  0.00  0.00  0.00  0.00 -0.06  0.00  0.00  0.00  0.00 34.29  1.00 103.5  3.02   0.0  1.00  1.00  1.00
 2019 235    66    66  25.6 -25.6 0.964   4.8  0.00  0.00  0.00  0.00 -0.06  0.00  0.00  0.00  0.00 46.69  1.00 119.4  2.56   0.0  1.00  1.00  1.00
 2019 236    67    67  25.5 -25.5 0.982   4.8  0.00  0.00  0.00  0.00 -0.06  0.00  0.00  0.00  0.00 42.36  1.00 116.6  2.75   0.0  1.00  1.00  1.00
 2019 237    68    68  25.6 -25.6     1   4.8  0.00  0.00  0.00  0.00 -0.06  0.00  0.00  0.00  0.00 36.65  1.00 115.7  3.16   0.0  1.00  1.00  1.00
 2019 238    69    69  25.9 -25.9 1.081  12.4  0.00  0.00  0.00  0.00 -0.06  0.00  0.00  0.00  0.00 34.27  1.00 108.2  3.16   0.0  1.00  1.00  1.00
 2019 239    70    70  24.7 -24.7 1.112   4.7  0.00  0.02  0.00  0.00 -0.06  0.00  0.00  0.00  0.00 37.59  1.00 109.5  2.91   0.0  1.00  1.00  1.00
 2019 240    71    71  26.3 -26.3 1.145   5.0  0.00  0.00  0.00  0.00 -0.06  0.00  0.00  0.00  0.00 36.07  1.00 109.9  3.05   0.0  1.00  1.00  1.00
 2019 241    72    72  26.9 -26.9 1.176   4.6  0.00  0.00  0.00  0.00 -0.06  0.00  0.00  0.00  0.00 31.79  1.00 110.3  3.47   0.0  1.00  1.00  1.00
 2019 242    73    73  26.9 -26.9 1.206   4.5  0.00  0.00  0.00  0.00 -0.06  0.00  0.00  0.00  0.00 34.64  1.00 108.0  3.12   0.0  1.00  1.00  1.00
 2019 243    74    74  25.8 -25.8 1.236   4.5  0.00  0.00  0.00  0.00 -0.06  0.00  0.00  0.00  0.00 41.26  1.00 129.0  3.13   0.0  1.00  1.00  1.00
 2019 244    75    75  26.2 -26.2 1.267   4.8  0.00  0.00  0.00  0.00 -0.06  0.00  0.00  0.00  0.00 32.33  1.00 117.5  3.63   0.0  1.00  1.00  1.00
 2019 245    76    76  26.1 -26.1 1.298   4.7  0.00  0.00  0.00  0.00 -0.06  0.00  0.00  0.00  0.00 33.95  1.00 115.5  3.40   0.0  1.00  1.00  1.00
 2019 246    77    77  27.0 -27.0 1.330   4.7  0.00  0.00  0.00  0.00 -0.06  0.00  0.00  0.00  0.00 32.77  1.00 116.7  3.56   0.0  1.00  1.00  1.00
 2019 247    78    78  27.1 -27.1 1.359   4.4  0.00  0.00  0.00  0.00 -0.06  0.00  0.00  0.00  0.00 35.58  1.00 127.5  3.58   0.0  1.00  1.00  1.00
 2019 248    79    79  26.0 -26.0 1.388   4.4  0.00  0.00  0.00  0.00 -0.06  0.00  0.00  0.00  0.00 39.85  1.00 146.9  3.69   0.0  1.00  1.00  1.00
 2019 249    80    80  26.9 -26.9 1.420   4.7  0.00  0.00  0.00  0.00 -0.06  0.00  0.00  0.00  0.00 35.28  1.00 137.0  3.88   0.0  1.00  1.00  1.00
 2019 250    81    81  27.0 -27.0 1.450   4.5  0.00  0.00  0.00  0.00 -0.06  0.00  0.00  0.00  0.00 35.48  1.00 135.4  3.82   0.0  1.00  1.00  1.00
 2019 251    82    82  26.0 -26.0 1.479   4.4  0.00  0.00  0.00  0.00 -0.06  0.00  0.00  0.00  0.00 37.16  1.00 131.0  3.53   0.0  1.00  1.00  1.00
 2019 252    83    83  25.5 -25.5 1.511   4.7  0.00  0.00  0.00  0.00 -0.06  0.00  0.00  0.00  0.00 36.93  1.00 135.7  3.68   0.0  1.00  1.00  1.00
 2019 253    84    84  26.1 -26.1 1.543   4.8  0.00  0.00  0.00  0.00 -0.06  0.00  0.00  0.00  0.00 40.20  1.00 153.6  3.82   0.0  1.00  1.00  1.00
 2019 254    85    85  26.0 -26.0 1.574   4.7  0.00  0.00  0.00  0.00 -0.06  0.00  0.00  0.00  0.00 39.88  1.00 153.0  3.84   0.0  1.00  1.00  1.00
 2019 255    86    86  26.8 -26.8 1.606   4.7  0.00  0.00  0.00  0.00 -0.06  0.00  0.00  0.00  0.00 37.28  1.00 144.4  3.87   0.0  1.00  1.00  1.00
 2019 256    87    87  27.6 -27.6 1.636   4.5  0.00  0.00  0.00  0.00 -0.06  0.00  0.00  0.00  0.00 36.75  1.00 140.9  3.83   0.0  1.00  1.00  1.00
 2019 257    88    88  27.0 -27.0 1.664   4.3  0.00  0.00  0.00  0.00 -0.06  0.00  0.00  0.00  0.00 36.86  1.00 140.7  3.82   0.0  1.00  1.00  1.00
 2019 258    89    89  26.6 -26.6 1.694   4.4  0.00  0.00  0.00  0.00 -0.06  0.00  0.00  0.00  0.00 34.55  1.00 137.3  3.97   0.0  1.00  1.00  1.00
 2019 259    90    90  25.6 -25.6 1.724   4.5  0.00  0.00  0.00  0.00 -0.06  0.00  0.00  0.00  0.00 45.90  1.00 158.4  3.45   0.0  1.00  1.00  1.00
 2019 260    91    91  26.7 -26.7 1.756   4.8  0.00  0.00  0.00  0.00 -0.06  0.00  0.00  0.00  0.00 40.99  1.00 151.1  3.69   0.0  1.00  1.00  1.00
 2019 261    92    92  27.1 -27.1 1.786   4.5  0.00  0.00  0.00  0.00 -0.06  0.00  0.00  0.00  0.00 40.97  1.00 166.6  4.07   0.0  1.00  1.00  1.00
 2019 262    93    93  25.5 -25.5 1.815   4.4  0.00  0.00  0.00  0.00 -0.06  0.00  0.00  0.00  0.00 45.18  1.00 158.6  3.51   0.0  1.00  1.00  1.00
 2019 263    94    94  26.8 -26.8 1.848   4.8  0.00  0.00  0.00  0.00 -0.06  0.00  0.00  0.00  0.00 31.73  1.00 142.6  4.49   0.0  1.00  1.00  1.00
 2019 264    95    95  26.6 -26.6 1.878   4.5  0.00  0.00  0.00  0.00 -0.06  0.00  0.00  0.00  0.00 33.52  1.00 145.6  4.34   0.0  1.00  1.00  1.00
 2019 265    96    96  27.0 -27.0 1.908   4.5  0.00  0.00  0.00  0.00 -0.06  0.00  0.00  0.00  0.00 31.99  1.00 143.3  4.48   0.0  1.00  1.00  1.00
 2019 266    97    97  27.8 -27.8 1.937   4.4  0.00  0.00  0.00  0.00 -0.06  0.00  0.00  0.00  0.00 36.78  1.00 147.6  4.01   0.0  1.00  1.00  1.00
 2019 267    98    98  27.5 -27.5 1.965   4.2  0.00  0.00  0.00  0.00 -0.06  0.00  0.00  0.00  0.00 40.13  1.00 162.2  4.04   0.0  1.00  1.00  1.00
 2019 268    99    99  27.7 -27.7 1.994   4.3  0.00  0.00  0.00  0.00 -0.06  0.00  0.00  0.00  0.00 38.28  1.00 169.5  4.43   0.0  1.00  1.00  1.00
 2019 269   100   100  26.5 -26.5 2.071  11.6  0.00  0.00  0.00  0.00 -0.06  0.00  0.00  0.00  0.00 41.57  1.00 168.8  4.06   0.0  1.00  1.00  1.00
 2019 270   101   101  25.9 -25.9 2.102   4.6  0.00  0.00  0.00  0.00 -0.06  0.00  0.00  0.00  0.00 46.89  1.00 177.1  3.78   0.0  1.00  1.00  1.00
 2019 271   102   102  26.9 -26.9 2.133   4.7  0.00  0.00  0.00  0.00 -0.06  0.00  0.00  0.00  0.00 40.78  1.00 178.2  4.37   0.0  1.00  1.00  1.00
 2019 272   103   103  27.1 -27.1 2.163   4.5  0.00  0.00  0.00  0.00 -0.06  0.00  0.00  0.00  0.00 42.15  1.00 171.3  4.06   0.0  1.00  1.00  1.00
 2019 273   104   104  27.4 -27.4 2.192   4.4  0.00  0.00  0.00  0.00 -0.06  0.00  0.00  0.00  0.00 42.41  1.00 165.4  3.90   0.0  1.00  1.00  1.00
 2019 274   105   105  27.3 -27.3 2.221   4.3  0.00  0.00  0.00  0.00 -0.06  0.00  0.00  0.00  0.00 42.69  1.00 171.8  4.02   0.0  1.00  1.00  1.00
 2019 275   106   106  26.1 -26.1 2.250   4.3  0.00  0.00  0.00  0.00 -0.06  0.00  0.00  0.00  0.00 48.22  1.00 180.0  3.73   0.0  1.00  1.00  1.00
 2019 276   107   107  26.0 -26.0 2.281   4.7  0.00  0.00  0.00  0.00 -0.06  0.00  0.00  0.00  0.00 50.57  1.00 190.7  3.77   0.0  1.00  1.00  1.00
 2019 277   108   108  26.7 -26.7 2.313   4.7  0.00  0.00  0.00  0.00 -0.06  0.00  0.00  0.00  0.00 46.21  1.00 185.0  4.00   0.0  1.00  1.00  1.00
 2019 278   109   109  26.9 -26.9 2.343   4.5  0.00  0.00  0.00  0.00 -0.06  0.00  0.00  0.00  0.00 40.23  1.00 163.5  4.06   0.0  1.00  1.00  1.00
 2019 279   110   110  25.7 -25.7 2.373   4.5  0.00  0.00  0.00  0.00 -0.06  0.00  0.00  0.00  0.00 43.27  1.00 164.7  3.81   0.0  1.00  1.00  1.00
 2019 280   111   111  25.6 -25.6 2.405   4.8  0.00  0.00  0.00  0.00 -0.06  0.00  0.00  0.00  0.00 49.08  1.00 172.6  3.52   0.0  1.00  1.00  1.00
 2019 281   112   112  25.8 -25.8 2.437   4.8  0.00  0.00  0.00  0.00 -0.06  0.00  0.00  0.00  0.00 46.35  1.00 173.5  3.74   0.0  1.00  1.00  1.00
 2019 282   113   113  26.9 -26.9 2.469   4.8  0.00  0.00  0.00  0.00 -0.06  0.00  0.00  0.00  0.00 47.84  1.00 169.3  3.54   0.0  1.00  1.00  1.00
 2019 283   114   114  27.0 -27.0 2.498   4.5  0.00  0.00  0.00  0.00 -0.06  0.00  0.00  0.00  0.00 44.45  1.00 167.6  3.77   0.0  1.00  1.00  1.00
 2019 284   115   115  26.6 -26.6 2.528   4.4  0.00  0.00  0.00  0.00 -0.06  0.00  0.00  0.00  0.00 48.98  1.00 191.7  3.91   0.0  1.00  1.00  1.00
 2019 285   116   116  26.8 -26.8 2.558   4.5  0.00  0.00  0.00  0.00 -0.06  0.00  0.00  0.00  0.00 47.13  1.00 188.9  4.01   0.0  1.00  1.00  1.00
 2019 286   117   117  27.0 -27.0 2.588   4.5  0.00  0.00  0.00  0.00 -0.06  0.00  0.00  0.00  0.00 45.20  1.00 176.8  3.91   0.0  1.00  1.00  1.00
 2019 287   118   118  27.3 -27.3 2.617   4.4  0.00  0.00  0.00  0.00 -0.06  0.00  0.00  0.00  0.00 46.39  1.00 189.9  4.09   0.0  1.00  1.00  1.00
 2019 288   119   119  27.8 -27.8 2.646   4.3  0.00  0.00  0.00  0.00 -0.06  0.00  0.00  0.00  0.00 48.12  1.00 180.5  3.75   0.0  1.00  1.00  1.00
 2019 289   120   120  25.5 -25.5 2.674   4.2  0.00  0.00  0.00  0.00 -0.06  0.00  0.00  0.00  0.00 44.46  1.00 181.1  4.07   0.0  1.00  1.00  1.00
 2019 290   121   121  27.3 -27.3 2.707   4.9  0.00  0.00  0.00  0.00 -0.06  0.00  0.00  0.00  0.00 50.30  1.00 176.6  3.51   0.0  1.00  1.00  1.00
 2019 291   122   122  26.2 -26.2 2.736   4.3  0.00  0.00  0.00  0.00 -0.06  0.00  0.00  0.00  0.00 51.06  1.00 191.8  3.76   0.0  1.00  1.00  1.00
 2019 292   123   123  26.6 -26.6 2.767   4.7  0.00  0.00  0.00  0.00 -0.06  0.00  0.00  0.00  0.00 50.00  1.00 184.3  3.69   0.0  1.00  1.00  1.00
 2019 293   124   124  27.1 -27.1 2.797   4.5  0.00  0.00  0.00  0.00 -0.06  0.00  0.00  0.00  0.00 47.06  1.00 176.8  3.76   0.0  1.00  1.00  1.00
 2019 294   125   125  27.0 -27.0 2.826   4.4  0.00  0.00  0.00  0.00 -0.06  0.00  0.00  0.00  0.00 45.22  1.00 182.3  4.03   0.0  1.00  1.00  1.00
 2019 295   126   126  27.3 -27.3 2.856   4.4  0.00  0.00  0.00  0.00 -0.06  0.00  0.00  0.00  0.00 47.53  1.00 191.6  4.03   0.0  1.00  1.00  1.00
 2019 296   127   127  27.2 -27.2 2.885   4.3  0.00  0.00  0.00  0.00 -0.06  0.00  0.00  0.00  0.00 49.41  1.00 191.7  3.88   0.0  1.00  1.00  1.00
 2019 297   128   128  25.8 -25.8 2.914   4.4  0.00  0.00  0.00  0.00 -0.06  0.00  0.00  0.00  0.00 48.00  1.00 184.6  3.85   0.0  1.00  1.00  1.00
 2019 298   129   129  27.8 -27.8 2.946   4.8  0.00  0.00  0.00  0.00 -0.06  0.00  0.00  0.00  0.00 46.03  1.00 181.6  3.95   0.0  1.00  1.00  1.00
 2019 299   130   130  27.3 -27.3 2.974   4.2  0.00  0.00  0.00  0.00 -0.06  0.00  0.00  0.00  0.00 47.81  1.00 191.6  4.01   0.0  1.00  1.00  1.00
 2019 300   131   131  25.8 -25.8 3.008   5.2  0.00  0.00  0.00  0.00 -0.06  0.00  0.00  0.00  0.00 55.12  1.00 192.1  3.49   0.0  1.00  1.00  1.00
 2019 301   132   132  25.7 -25.7 3.040   4.8  0.00  0.00  0.00  0.00 -0.06  0.00  0.00  0.00  0.00 50.04  1.00 187.3  3.74   0.0  1.00  1.00  1.00
 2019 302   133   133  27.5 -27.5 3.072   4.8  0.00  0.00  0.00  0.00 -0.06  0.00  0.00  0.00  0.00 41.45  1.00 175.8  4.24   0.0  1.00  1.00  1.00
 2019 303   134   134  28.1 -28.1 3.101   4.3  0.00  0.00  0.00  0.00 -0.06  0.00  0.00  0.00  0.00 39.60  1.00 168.4  4.25   0.0  1.00  1.00  1.00
 2019 304   135   135  27.1 -27.1 3.128   4.1  0.00  0.00  0.00  0.00 -0.06  0.00  0.00  0.00  0.00 45.69  1.00 191.4  4.19   0.0  1.00  1.00  1.00
 2019 305   136   136  27.6 -27.6 3.157   4.4  0.00  0.00  0.00  0.00 -0.06  0.00  0.00  0.00  0.00 43.57  1.00 183.1  4.20   0.0  1.00  1.00  1.00
 2019 306   137   137  27.0 -27.0 3.186   4.3  0.00  0.00  0.00  0.00 -0.06  0.00  0.00  0.00  0.00 45.19  1.00 191.4  4.24   0.0  1.00  1.00  1.00
 2019 307   138   138  27.6 -27.6 3.215   4.4  0.00  0.00  0.00  0.00 -0.06  0.00  0.00  0.00  0.00 39.96  1.00 165.8  4.15   0.0  1.00  1.00  1.00
 2019 308   139   139  27.7 -27.7 3.244   4.2  0.00  0.00  0.00  0.00 -0.06  0.00  0.00  0.00  0.00 37.81  1.00 156.9  4.15   0.0  1.00  1.00  1.00
 2019 309   140   140  28.4 -28.4 3.272   4.2  0.00  0.00  0.00  0.00 -0.06  0.00  0.00  0.00  0.00 34.91  1.00 152.4  4.37   0.0  1.00  1.00  1.00
 2019 310   141   141  28.2 -28.2 3.299   4.0  0.00  0.00  0.00  0.00 -0.06  0.00  0.00  0.00  0.00 34.44  1.00 148.0  4.30   0.0  1.00  1.00  1.00
 2019 311   142   142  28.0 -28.0 3.326   4.1  0.00  0.00  0.00  0.00 -0.06  0.00  0.00  0.00  0.00 33.13  1.00 143.6  4.34   0.0  1.00  1.00  1.00
 2019 312   143   143  28.4 -28.4 3.354   4.2  0.00  0.00  0.00  0.00 -0.06  0.00  0.00  0.00  0.00 30.64  1.00 139.0  4.54   0.0  1.00  1.00  1.00
 2019 313   144   144  28.5 -28.5 3.381   4.0  0.00  0.00  0.00  0.00 -0.06  0.00  0.00  0.00  0.00 30.00  1.00 134.6  4.49   0.0  1.00  1.00  1.00
 2019 314   145   145  27.5 -27.5 3.407   4.0  0.00  0.00  0.00  0.00 -0.06  0.00  0.00  0.00  0.00 34.02  1.00 142.3  4.18   0.0  1.00  1.00  1.00
 2019 315   146   146  27.8 -27.8 3.436   4.3  0.00  0.00  0.00  0.00 -0.06  0.00  0.00  0.00  0.00 33.74  1.00 139.9  4.15   0.0  1.00  1.00  1.00
 2019 316   147   147  26.8 -26.8 3.464   4.2  0.00  0.00  0.00  0.00 -0.06  0.00  0.00  0.00  0.00 37.11  1.00 136.2  3.67   0.0  1.00  1.00  1.00
 2019 317   148   148  27.5 -27.5 3.494   4.5  0.00  0.00  0.00  0.00 -0.06  0.00  0.00  0.00  0.00 30.14  1.00 132.2  4.39   0.0  1.00  1.00  1.00
 2019 318   149   149  27.8 -27.8 3.523   4.3  0.00  0.00  0.00  0.00 -0.06  0.00  0.00  0.00  0.00 28.99  1.00 127.8  4.41   0.0  1.00  1.00  1.00
 2019 319   150   150  27.4 -27.4 3.550   4.2  0.00  0.00  0.00  0.00 -0.06  0.00  0.00  0.00  0.00 27.20  1.00 123.3  4.53   0.0  1.00  1.00  1.00
 2019 320   151   151  27.9 -27.9 3.578   4.3  0.00  0.00  0.00  0.00 -0.06  0.00  0.00  0.03  0.00 26.78  1.00 118.8  4.44   0.0  1.00  1.00  1.00
 2019 321   152   152  28.3 -28.3 3.604   4.2  0.00  0.00  0.00  0.00 -0.06  0.00  0.00  0.09  0.00 25.45  1.00 114.3  4.49   0.0  1.00  1.00  1.00
 2019 322   153   153  28.5 -28.5 3.627   4.1  0.00  0.00  0.00  0.00 -0.06  0.00  0.00  0.14  0.00 23.99  1.00 109.7  4.57   0.0  1.00  1.00  1.00
 2019 323   154   154  28.6 -28.6 3.648   4.0  0.00  0.00  0.00  0.00 -0.06  0.00  0.00  0.20  0.00 23.96  1.00 105.3  4.40   0.0  1.00  1.00  1.00
 2019 324   155   155  28.0 -28.0 3.668   4.0  0.00  0.00  0.00  0.00 -0.06  0.00  0.00  0.25  0.00 31.72  1.00 128.0  4.04   0.0  1.00  1.00  1.00
 2019 325   156   156  27.3 -27.3 3.696   4.2  0.00  0.00  0.00  0.00 -0.06  0.00  0.00  0.00  0.00 32.13  1.00 128.2  3.99   0.0  1.00  1.00  1.00
 2019 326   157   157  28.4 -28.4 3.725   4.3  0.00  0.00  0.00  0.00 -0.06  0.00  0.00  0.00  0.00 30.43  1.00 124.1  4.08   0.0  1.00  1.00  1.00
 2019 327   158   158  28.3 -28.3 3.752   4.0  0.00  0.00  0.00  0.00 -0.06  0.00  0.00  0.00  0.00 27.83  1.00 119.8  4.30   0.0  1.00  1.00  1.00
 2019 328   159   159  28.2 -28.2 3.779   4.0  0.00  0.00  0.00  0.00 -0.06  0.00  0.00  0.00  0.00 27.86  1.00 115.6  4.15   0.0  1.00  1.00  1.00
 2019 329   160   160  28.4 -28.4 3.806   4.1  0.00  0.00  0.00  0.00 -0.06  0.00  0.00  0.00  0.00 26.00  1.00 111.3  4.28   0.0  1.00  1.00  1.00
 2019 330   161   161  28.2 -28.2 3.831   4.0  0.00  0.00  0.00  0.00 -0.06  0.00  0.00  0.06  0.00 24.88  1.00 107.0  4.30   0.0  1.00  1.00  1.00
 2019 331   162   162  28.6 -28.6 3.855   4.1  0.00  0.00  0.00  0.00 -0.06  0.00  0.00  0.11  0.00 22.26  1.00 102.4  4.60   0.0  1.00  1.00  1.00
 2019 332   163   163  27.8 -27.8 3.877   4.0  0.00  0.00  0.00  0.00 -0.06  0.00  0.00  0.18  0.00 21.44  1.00  97.8  4.56   0.0  1.00  1.00  1.00
 2019 333   164   164  28.1 -28.1 3.899   4.2  0.00  0.00  0.00  0.00 -0.06  0.00  0.00  0.24  0.00 21.38  1.00  93.3  4.36   0.0  1.00  1.00  1.00
 2019 334   165   165  28.0 -28.0 3.918   4.1  0.00  0.00  0.00  0.00 -0.06  0.00  0.00  0.29  0.00 19.59  1.00  88.7  4.53   0.0  1.00  1.00  1.00
 2019 335   166   166  27.2 -27.2 3.936   4.1  0.00  0.00  0.02  0.00 -0.06  0.00  0.00  0.35  0.00 27.73  1.00 111.9  4.03   0.0  1.00  1.00  1.00
 2019 336   167   167  27.8 -27.8 3.964   4.4  0.00  0.00  0.00  0.00 -0.06  0.00  0.00  0.02  0.00 25.66  1.00 107.6  4.19   0.0  1.00  1.00  1.00
 2019 337   168   168  27.6 -27.6 3.992   4.2  0.00  0.00  0.00  0.00 -0.06  0.00  0.00  0.01  0.00 24.74  1.00 103.4  4.18   0.0  1.00  1.00  1.00
 2019 338   169   169  27.7 -27.7 4.068  11.8  0.00  0.00  0.00  0.00 -0.06  0.00  0.00  0.03  0.00 22.08  1.00  98.9  4.48   0.0  1.00  1.00  1.00
 2019 339   170   170  27.5 -27.5 4.094   4.2  0.00  0.00  0.00  0.00 -0.06  0.00  0.00  0.10  0.00 21.88  1.00  94.5  4.32   0.0  1.00  1.00  1.00
 2019 340   171   171  27.8 -27.8 4.118   4.3  0.00  0.00  0.00  0.00 -0.06  0.00  0.00  0.16  0.00 22.81  1.00  90.4  3.96   0.0  1.00  1.00  1.00
 2019 341   172   172  27.6 -27.6 4.140   4.2  0.00  0.00  0.00  0.00 -0.06  0.00  0.00  0.21  0.00 19.90  1.00  85.9  4.32   0.0  1.00  1.00  1.00
 2019 342   173   173  27.7 -27.7 4.160   4.3  0.00  0.00  0.00  0.00 -0.06  0.00  0.00  0.27  0.00 19.58  1.00  81.7  4.17   0.0  1.00  1.00  1.00
 2019 343   174   174  28.2 -28.2 4.179   4.2  0.00  0.00  0.00  0.00 -0.06  0.00  0.00  0.33  0.00 17.22  1.00  77.1  4.48   0.0  1.00  1.00  1.00
 2019 344   175   175  27.4 -27.4 4.196   4.1  0.00  0.00  0.09  0.00 -0.06  0.00  0.00  0.40  0.00 23.03  1.00  99.1  4.30   0.0  1.00  1.00  1.00
 2019 345   176   176  26.7 -26.7 4.222   4.3  0.00  0.00  0.00  0.00 -0.06  0.00  0.00  0.08  0.00 20.97  1.00  94.5  4.50   0.0  1.00  1.00  1.00
 2019 346   177   177  26.9 -26.9 4.250   4.5  0.00  0.00  0.00  0.00 -0.06  0.00  0.00  0.07  0.00 20.46  1.00  90.0  4.40   0.0  1.00  1.00  1.00
 2019 347   178   178  27.6 -27.6 4.276   4.5  0.00  0.00  0.00  0.00 -0.06  0.00  0.00  0.13  0.00 18.14  1.00  85.2  4.70   0.0  1.00  1.00  1.00
 2019 348   179   179  26.9 -26.9 4.299   4.2  0.00  0.00  0.00  0.00 -0.06  0.00  0.00  0.20  0.00 18.85  1.00  80.8  4.29   0.0  1.00  1.00  1.00
 2019 349   180   180  26.7 -26.7 4.320   4.5  0.00  0.00  0.00  0.00 -0.06  0.00  0.00  0.27  0.00 17.00  1.00  76.4  4.49   0.0  1.00  1.00  1.00
 2019 350   181   181  27.2 -27.2 4.340   4.5  0.00  0.00  0.01  0.00 -0.06  0.00  0.00  0.34  0.00 15.95  1.00  71.8  4.50   0.0  1.00  1.00  1.00
 2019 351   182   182  27.5 -27.5 4.357   4.4  0.00  0.00  0.11  0.00 -0.06  0.00  0.00  0.41  0.00 21.33  1.00  92.9  4.35   0.0  1.00  1.00  1.00
 2019 352   183   183  28.0 -28.0 4.383   4.3  0.00  0.00  0.00  0.00 -0.06  0.00  0.00  0.11  0.00 22.91  1.00  88.9  3.88   0.0  1.00  1.00  1.00
 2019 353   184   184  27.6 -27.6 4.408   4.2  0.00  0.00  0.00  0.00 -0.06  0.00  0.00  0.09  0.00 20.94  1.00  84.8  4.05   0.0  1.00  1.00  1.00
 2019 354   185   185  27.2 -27.2 4.432   4.3  0.00  0.00  0.00  0.00 -0.06  0.00  0.00  0.16  0.00 18.40  1.00  80.3  4.37   0.0  1.00  1.00  1.00
 2019 355   186   186  26.5 -26.5 4.454   4.4  0.00  0.00  0.00  0.00 -0.06  0.00  0.00  0.23  0.00 17.45  1.00  75.9  4.35   0.0  1.00  1.00  1.00
 2019 356   187   187  25.5 -25.5 4.476   4.6  0.00  0.00  0.00  0.00 -0.06  0.00  0.00  0.30  0.00 15.66  1.00  71.4  4.56   0.0  1.00  1.00  1.00
 2019 357   188   188  26.4 -26.4 4.496   4.8  0.00  0.00  0.06  0.00 -0.06  0.00  0.00  0.37  0.00 15.08  1.00  66.9  4.44   0.0  1.00  1.00  1.00
 2019 358   189   189  26.7 -26.7 4.513   4.6  0.00  0.00  0.16  0.00 -0.06  0.00  0.00  0.44  0.00 19.58  1.00  88.5  4.52   0.0  1.00  1.00  1.00
 2019 359   190   190  26.6 -26.6 4.539   4.5  0.00  0.00  0.00  0.00 -0.06  0.00  0.00  0.13  0.00 18.71  1.00  83.9  4.49   0.0  1.00  1.00  1.00
 2019 360   191   191  26.9 -26.9 4.566   4.5  0.00  0.00  0.00  0.00 -0.06  0.00  0.00  0.13  0.00 17.00  1.00  79.2  4.66   0.0  1.00  1.00  1.00
 2019 361   192   192  26.7 -26.7 4.589   4.5  0.00  0.00  0.00  0.00 -0.06  0.00  0.00  0.21  0.00 17.63  1.00  74.8  4.24   0.0  1.00  1.00  1.00
 2019 362   193   193  26.5 -26.5 4.611   4.5  0.00  0.00  0.00  0.00 -0.06  0.00  0.00  0.28  0.00 17.28  1.00  70.6  4.09   0.0  1.00  1.00  1.00
 2019 363   194   194  25.7 -25.7 4.631   4.6  0.00  0.00  0.02  0.00 -0.06  0.00  0.00  0.35  0.00 15.37  1.00  66.2  4.31   0.0  1.00  1.00  1.00
 2019 364   195   195  26.1 -26.1 4.650   4.8  0.00  0.00  0.12  0.00 -0.06  0.00  0.00  0.42  0.00 13.99  1.00  62.0  4.43   0.0  1.00  1.00  1.00
 2019 365   196   196  26.4 -26.4 4.666   4.7  0.00  0.00  0.22  0.00 -0.06  0.00  0.00  0.48  0.00 21.93  1.00  85.5  3.90   0.0  1.00  1.00  1.00
 2020   1   197   197  26.2 -26.2 4.692   4.6  0.00  0.00  0.00  0.00 -0.06  0.00  0.00  0.15  0.00 18.84  1.00  81.3  4.31   0.0  1.00  1.00  1.00
 2020   2   198   198  25.2 -25.2 4.718   4.7  0.00  0.00  0.00  0.00 -0.06  0.00  0.00  0.15  0.00 19.12  1.00  77.2  4.04   0.0  1.00  1.00  1.00
 2020   3   199   199  23.6 -23.6 4.745   5.0  0.00  0.09  0.00  0.00 -0.06  0.00  0.03  0.20  0.00 17.50  1.00  73.1  4.17   0.0  1.00  1.00  1.00
 2020   4   200   200  25.0 -25.0 4.769   5.0  0.00  0.00  0.00  0.00 -0.06  0.00  0.00  0.27  0.00 18.85  1.00  69.4  3.68   0.0  1.00  1.00  1.00
 2020   5   201   201  25.0 -25.0 4.791   5.0  0.00  0.00  0.00  0.00 -0.06  0.00  0.00  0.33  0.00 17.43  1.00  65.6  3.76   0.0  1.00  1.00  1.00
 2020   6   202   202  26.2 -26.2 4.812   5.0  0.00  0.00  0.09  0.00 -0.06  0.00  0.00  0.39  0.00 14.91  1.00  61.4  4.12   0.0  1.00  1.00  1.00
 2020   7   203   203  27.6 -27.6 4.828   4.7  0.00  0.00  0.19  0.00 -0.06  0.00  0.00  0.46  0.00 18.45  1.00  82.2  4.46   0.0  1.00  1.00  1.00
 2020   8   204   204  28.1 -28.1 4.852   4.3  0.00  0.00  0.00  0.00 -0.06  0.00  0.00  0.17  0.00 18.33  1.00  78.0  4.25   0.0  1.00  1.00  1.00
 2020   9   205   205  28.3 -28.3 4.875   4.1  0.00  0.00  0.00  0.00 -0.06  0.00  0.00  0.17  0.00 19.56  1.00  74.2  3.79   0.0  1.00  1.00  1.00
 2020  10   206   206  28.0 -28.0 4.896   4.1  0.00  0.00  0.00  0.00 -0.06  0.00  0.00  0.23  0.00 15.99  1.00  69.7  4.36   0.0  1.00  1.00  1.00
 2020  11   207   207  27.8 -27.8 4.915   4.1  0.00  0.00  0.00  0.00 -0.06  0.00  0.00  0.30  0.00 15.37  1.00  65.5  4.26   0.0  1.00  1.00  1.00
 2020  12   208   208  28.5 -28.5 4.933   4.2  0.00  0.00  0.06  0.00 -0.06  0.00  0.00  0.37  0.00 14.89  1.00  61.3  4.12   0.0  1.00  1.00  1.00
 2020  13   209   209  29.8 -29.8 4.948   4.0  0.00  0.00  0.16  0.00 -0.06  0.00  0.00  0.44  0.00 12.97  1.00  56.8  4.38   0.0  1.00  1.00  1.00
 2020  14   210   210  29.0 -29.0 4.960   3.6  0.00  0.00  0.27  0.00 -0.06  0.00  0.00  0.51  0.00 18.41  1.00  80.1  4.35   0.0  1.00  1.00  1.00
 2020  15   211   211  29.1 -29.1 4.981   3.9  0.00  0.00  0.00  0.00 -0.06  0.00  0.00  0.18  0.00 16.85  1.00  75.5  4.48   0.0  1.00  1.00  1.00
 2020  16   212   212  27.5 -27.5 5.016   6.4  0.00  0.00  0.00  0.00 -0.06  0.00  0.00  0.18  0.00 19.56  1.00  71.8  3.67   0.0  1.00  1.00  1.00
 2020  17   213   213  26.6 -26.6 5.038   4.3  0.00  0.00  0.00  0.00 -0.06  0.00  0.00  0.24  0.00 16.35  1.00  67.7  4.14   0.0  1.00  1.00  1.00
 2020  18   214   214  26.8 -26.8 5.058   4.5  0.00  0.00  0.00  0.00 -0.06  0.00  0.00  0.31  0.00 17.62  1.00  66.7  3.78   0.0  1.00  1.00  1.00
 2020  19   215   215  25.8 -25.8 5.079   4.5  0.00  0.00  0.00  0.00 -0.06  0.00  0.00  0.32  0.00 16.03  1.00  62.8  3.92   0.0  1.00  1.00  1.00
 2020  20   216   216  26.7 -26.7 5.099   4.8  0.00  0.00  0.07  0.00 -0.06  0.00  0.00  0.38  0.00 14.85  1.00  58.8  3.96   0.0  1.00  1.00  1.00
 2020  21   217   217  28.1 -28.1 5.115   4.5  0.00  0.00  0.17  0.00 -0.06  0.00  0.00  0.45  0.00 12.15  1.00  54.4  4.48   0.0  1.00  1.00  1.00
 2020  22   218   218  28.2 -28.2 5.128   4.1  0.00  0.00  0.28  0.00 -0.06  0.00  0.00  0.52  0.00 17.59  1.00  77.8  4.42   0.0  1.00  1.00  1.00
 2020  23   219   219  27.8 -27.8 5.151   4.1  0.00  0.00  0.00  0.00 -0.06  0.00  0.00  0.19  0.00 16.66  1.00  73.4  4.40   0.0  1.00  1.00  1.00
 2020  24   220   220  27.5 -27.5 5.173   4.2  0.00  0.00  0.00  0.00 -0.06  0.00  0.00  0.19  0.00 14.82  1.00  68.7  4.63   0.0  1.00  1.00  1.00
 2020  25   221   221  26.8 -26.8 5.194   4.3  0.00  0.00  0.00  0.00 -0.06  0.00  0.00  0.27  0.00 12.95  1.00  63.6  4.91   0.0  1.00  1.00  1.00
 2020  26   222   222  25.3 -25.3 5.213   4.5  0.00  0.00  0.03  0.00 -0.06  0.00  0.00  0.36  0.00 11.42  1.00  58.4  5.12   0.0  1.00  1.00  1.00
 2020  27   223   223  26.0 -26.0 5.231   4.9  0.00  0.00  0.16  0.00 -0.06  0.00  0.00  0.44  0.00 12.41  1.00  53.9  4.35   0.0  1.00  1.00  1.00
 2020  28   224   224  26.5 -26.5 5.247   4.7  0.00  0.00  0.27  0.00 -0.06  0.00  0.00  0.51  0.00 16.60  1.00  75.8  4.57   0.0  1.00  1.00  1.00
 2020  29   225   225  27.1 -27.1 5.271   4.6  0.00  0.00  0.00  0.00 -0.06  0.00  0.00  0.20  0.00 15.19  1.00  71.0  4.68   0.0  1.00  1.00  1.00
 2020  30   226   226  27.2 -27.2 5.294   4.4  0.00  0.00  0.00  0.00 -0.06  0.00  0.00  0.21  0.00 13.48  1.00  66.2  4.91   0.0  1.00  1.00  1.00
 2020  31   227   227  27.4 -27.4 5.315   4.4  0.00  0.00  0.00  0.00 -0.06  0.00  0.00  0.29  0.00 14.44  1.00  62.6  4.34   0.0  1.00  1.00  1.00
 2020  32   228   228  27.0 -27.0 5.334   4.3  0.00  0.00  0.02  0.00 -0.06  0.00  0.00  0.35  0.00 11.57  1.00  57.7  4.99   0.0  1.00  1.00  1.00
 2020  33   229   229  26.5 -26.5 5.350   4.4  0.00  0.00  0.15  0.00 -0.06  0.00  0.00  0.43  0.00 12.13  1.00  53.3  4.40   0.0  1.00  1.00  1.00
 2020  34   230   230  26.8 -26.8 5.365   4.6  0.00  0.00  0.26  0.00 -0.06  0.00  0.00  0.50  0.00 16.81  1.00  74.7  4.44   0.0  1.00  1.00  1.00
 2020  35   231   231  26.9 -26.9 5.389   4.5  0.00  0.00  0.00  0.00 -0.06  0.00  0.00  0.20  0.00 16.03  1.00  70.3  4.39   0.0  1.00  1.00  1.00
 2020  36   232   232  27.1 -27.1 5.413   4.5  0.00  0.00  0.00  0.00 -0.06  0.00  0.00  0.22  0.00 16.78  1.00  66.4  3.96   0.0  1.00  1.00  1.00
 2020  37   233   233  27.5 -27.5 5.434   4.4  0.00  0.00  0.00  0.00 -0.06  0.00  0.00  0.28  0.00 14.61  1.00  62.1  4.25   0.0  1.00  1.00  1.00
 2020  38   234   234  27.2 -27.2 5.453   4.3  0.00  0.00  0.02  0.00 -0.06  0.00  0.00  0.35  0.00 11.90  1.00  58.1  4.88   0.0  1.00  1.00  1.00
 2020  39   235   235  28.4 -28.4 5.470   4.4  0.00  0.00  0.12  0.00 -0.06  0.00  0.00  0.41  0.00 10.06  1.00  53.2  5.29   0.0  1.00  1.00  1.00
 2020  40   236   236  28.4 -28.4 5.483   4.0  0.00  0.00  0.24  0.00 -0.06  0.00  0.00  0.49  0.00 12.50  1.00  49.3  3.94   0.0  1.00  1.00  1.00
 2020  41   237   237  28.4 -28.4 5.495   4.0  0.00  0.00  0.34  0.00 -0.06  0.00  0.00  0.56  0.00 16.02  1.00  73.2  4.57   0.0  1.00  1.00  1.00
 2020  42   238   238  28.9 -28.9 5.516   4.0  0.00  0.00  0.00  0.00 -0.06  0.00  0.00  0.21  0.00 15.56  1.00  69.4  4.46   0.0  1.00  1.00  1.00
 2020  43   239   239  28.0 -28.0 5.537   3.9  0.00  0.00  0.00  0.00 -0.06  0.00  0.00  0.21  0.00 15.74  1.00  65.2  4.14   0.0  1.00  1.00  1.00
 2020  44   240   240  27.8 -27.8 5.557   4.2  0.00  0.00  0.00  0.00 -0.06  0.00  0.00  0.27  0.00 13.93  1.00  60.9  4.37   0.0  1.00  1.00  1.00
 2020  45   241   241  28.5 -28.5 5.575   4.2  0.00  0.00  0.02  0.00 -0.06  0.00  0.00  0.35  0.00 10.53  1.00  55.6  5.28   0.0  1.00  1.00  1.00
 2020  46   242   242  28.4 -28.4 5.590   4.0  0.00  0.00  0.16  0.00 -0.06  0.00  0.00  0.44  0.00  9.91  1.00  50.5  5.10   0.0  1.00  1.00  1.00
 2020  47   243   243  28.8 -28.8 5.603   4.0  0.00  0.00  0.28  0.00 -0.06  0.00  0.00  0.52  0.00 15.48  1.00  71.8  4.64   0.0  1.00  1.00  1.00
 2020  48   244   244  29.3 -29.3 5.623   3.9  0.00  0.00  0.00  0.00 -0.06  0.00  0.00  0.22  0.00 14.52  1.00  67.1  4.62   0.0  1.00  1.00  1.00
 2020  49   245   245  29.1 -29.1 5.642   3.8  0.00  0.00  0.00  0.00 -0.06  0.00  0.00  0.23  0.00 14.36  1.00  62.7  4.36   0.0  1.00  1.00  1.00
 2020  50   246   246  29.2 -29.2 5.660   3.8  0.00  0.00  0.00  0.00 -0.06  0.00  0.00  0.31  0.00 12.01  1.00  57.7  4.81   0.0  1.00  1.00  1.00
 2020  51   247   247  29.9 -29.9 5.675   3.8  0.00  0.00  0.08  0.00 -0.06  0.00  0.00  0.39  0.00 11.08  1.00  52.9  4.77   0.0  1.00  1.00  1.00
 2020  52   248   248  30.2 -30.2 5.688   3.6  0.00  0.00  0.21  0.00 -0.06  0.00  0.00  0.47  0.00 10.39  1.00  48.3  4.64   0.0  1.00  1.00  1.00
 2020  53   249   249  31.3 -31.3 5.699   3.5  0.00  0.00  0.32  0.00 -0.06  0.00  0.00  0.55  0.00 12.98  1.00  70.0  5.39   0.0  1.00  1.00  1.00
 2020  54   250   250  31.1 -31.1 5.715   3.2  0.00  0.00  0.00  0.00 -0.06  0.00  0.00  0.23  0.00 12.08  1.00  64.6  5.35   0.0  1.00  1.00  1.00
 2020  55   251   251  30.5 -30.5 5.731   3.3  0.00  0.00  0.00  0.00 -0.06  0.00  0.00  0.26  0.00 11.79  1.00  59.6  5.06   0.0  1.00  1.00  1.00
 2020  56   252   252  29.4 -29.4 5.746   3.4  0.00  0.00  0.02  0.00 -0.06  0.00  0.00  0.34  0.00 12.26  1.00  55.1  4.50   0.0  1.00  1.00  1.00
 2020  57   253   253  29.8 -29.8 5.761   3.8  0.00  0.00  0.13  0.00 -0.06  0.00  0.00  0.42  0.00 11.39  1.00  50.7  4.45   0.0  1.00  1.00  1.00
 2020  58   254   254  30.0 -30.0 5.773   3.6  0.00  0.00  0.24  0.00 -0.06  0.00  0.00  0.50  0.00  9.42  1.00  45.8  4.86   0.0  1.00  1.00  1.00
 2020  59   255   255  30.3 -30.3 5.783   3.6  0.00  0.00  0.36  0.00 -0.06  0.00  0.00  0.58  0.00 13.03  1.00  68.9  5.29   0.0  1.00  1.00  1.00
 2020  60   256   256  32.2 -32.2 5.801   3.5  0.00  0.00  0.00  0.00 -0.06  0.00  0.00  0.23  0.00 10.99  1.00  63.1  5.74   0.0  1.00  1.00  1.00
 2020  61   257   257  30.8 -30.8 5.815   3.0  0.00  0.00  0.00  0.00 -0.06  0.00  0.00  0.27  0.00 11.73  1.00  58.1  4.95   0.0  1.00  1.00  1.00
 2020  62   258   258  30.8 -30.8 5.830   3.3  0.00  0.00  0.03  0.00 -0.06  0.00  0.00  0.35  0.00 11.42  1.00  53.5  4.69   0.0  1.00  1.00  1.00
 2020  63   259   259  30.8 -30.8 5.842   3.4  0.00  0.00  0.15  0.00 -0.06  0.00  0.00  0.43  0.00  9.45  1.00  48.5  5.13   0.0  1.00  1.00  1.00
 2020  64   260   260  30.8 -30.8 5.853   3.3  0.00  0.00  0.28  0.00 -0.06  0.00  0.00  0.52  0.00  7.30  1.00  42.6  5.84   0.0  1.00  1.00  1.00
 2020  65   261   261  31.3 -31.3 5.862   3.3  0.00  0.00  0.42  0.00 -0.06  0.00  0.00  0.61  0.00 11.86  1.00  68.6  5.78   0.0  1.00  1.00  1.00
 2020  66   262   262  30.5 -30.5 5.878   3.2  0.00  0.00  0.00  0.00 -0.06  0.00  0.00  0.24  0.00 13.21  1.00  63.7  4.83   0.0  1.00  1.00  1.00
 2020  67   263   263  30.8 -30.8 5.895   3.4  0.00  0.00  0.00  0.00 -0.06  0.00  0.00  0.25  0.00 11.24  1.00  58.5  5.20   0.0  1.00  1.00  1.00
 2020  68   264   264  30.6 -30.6 5.910   3.3  0.00  0.00  0.00  0.00 -0.06  0.00  0.00  0.33  0.00 10.39  1.00  53.2  5.12   0.0  1.00  1.00  1.00
 2020  69   265   265  31.4 -31.4 5.923   3.4  0.00  0.00  0.14  0.00 -0.06  0.00  0.00  0.42  0.00  8.12  1.00  47.3  5.82   0.0  1.00  1.00  1.00
 2020  70   266   266  30.6 -30.6 5.933   3.2  0.00  0.00  0.29  0.00 -0.06  0.00  0.00  0.53  0.00  7.71  1.00  41.7  5.41   0.0  1.00  1.00  1.00
 2020  71   267   267  31.1 -31.1 5.942   3.4  0.00  0.00  0.42  0.00 -0.06  0.00  0.00  0.62  0.00 13.89  1.00  67.0  4.82   0.0  1.00  1.00  1.00
 2020  72   268   268  30.6 -30.6 5.958   3.3  0.00  0.00  0.00  0.00 -0.06  0.00  0.00  0.25  0.00 13.93  1.00  62.4  4.48   0.0  1.00  1.00  1.00
 2020  73   269   269  29.3 -29.3 5.975   3.4  0.00  0.00  0.00  0.00 -0.06  0.00  0.00  0.25  0.00 13.06  1.00  58.0  4.44   0.0  1.00  1.00  1.00
 2020  74   270   270  28.9 -28.9 5.992   3.8  0.00  0.00  0.00  0.00 -0.06  0.00  0.00  0.33  0.00 13.00  1.00  53.8  4.14   0.0  1.00  1.00  1.00
 2020  75   271   271  29.3 -29.3 6.043  12.6  0.00  0.00  0.10  0.00 -0.06  0.00  0.00  0.40  0.00 10.27  1.00  48.9  4.76   0.0  1.00  1.00  1.00
 2020  76   272   272  30.3 -30.3 6.056   3.8  0.00  0.00  0.22  0.00 -0.06  0.00  0.00  0.48  0.00  9.03  1.00  43.9  4.86   0.0  1.00  1.00  1.00
 2020  77   273   273  30.9 -30.9 6.066   3.5  0.00  0.00  0.35  0.00 -0.06  0.00  0.00  0.57  0.00 12.02  1.00  65.1  5.42   0.0  1.00  1.00  1.00
 2020  78   274   274  31.3 -31.3 6.082   3.3  0.00  0.00  0.00  0.00 -0.06  0.00  0.00  0.25  0.00 12.03  1.00  60.0  4.99   0.0  1.00  1.00  1.00
 2020  79   275   275  31.3 -31.3 6.098   3.2  0.00  0.00  0.00  0.00 -0.06  0.00  0.00  0.28  0.00 10.59  1.00  54.7  5.16   0.0  1.00  1.00  1.00
 2020  80   276   276  30.2 -30.2 6.111   3.2  0.00  0.00  0.06  0.00 -0.06  0.00  0.00  0.37  0.00  9.87  1.00  49.5  5.01   0.0  1.00  1.00  1.00
 2020  81   277   277  31.5 -31.5 6.124   3.5  0.00  0.00  0.19  0.00 -0.06  0.00  0.00  0.46  0.00  8.47  1.00  44.3  5.23   0.0  1.00  1.00  1.00
 2020  82   278   278  30.5 -30.5 6.133   3.1  0.00  0.00  0.33  0.00 -0.06  0.00  0.00  0.55  0.00 13.59  1.00  65.1  4.79   0.0  1.00  1.00  1.00
 2020  83   279   279  30.7 -30.7 6.150   3.4  0.00  0.00  0.00  0.00 -0.06  0.00  0.00  0.24  0.00 14.54  1.00  66.6  4.58   0.0  1.00  1.00  1.00
 2020  84   280   280  28.7 -28.7 6.168   3.4  0.00  0.00  0.00  0.00 -0.06  0.00  0.00  0.21  0.00 14.36  1.00  63.5  4.43   0.0  1.00  1.00  1.00
 2020  85   281   281  29.9 -29.9 6.189   3.9  0.00  0.00  0.00  0.00 -0.06  0.00  0.00  0.22  0.00 13.70  1.00  59.2  4.32   0.0  1.00  1.00  1.00
 2020  86   282   282  30.1 -30.1 6.206   3.6  0.00  0.00  0.00  0.00 -0.06  0.00  0.00  0.28  0.00 11.14  1.00  54.4  4.88   0.0  1.00  1.00  1.00
 2020  87   283   283  31.5 -31.5 6.221   3.5  0.00  0.00  0.05  0.00 -0.06  0.00  0.00  0.37  0.00  9.21  1.00  49.0  5.33   0.0  1.00  1.00  1.00
 2020  88   284   284  31.3 -31.3 6.232   3.2  0.00  0.00  0.19  0.00 -0.06  0.00  0.00  0.46  0.00  8.35  1.00  43.8  5.24   0.0  1.00  1.00  1.00
 2020  89   285   285  31.7 -31.7 6.242   3.2  0.00  0.00  0.32  0.00 -0.06  0.00  0.00  0.55  0.00 12.21  1.00  64.0  5.24   0.0  1.00  1.00  1.00
 2020  90   286   286  31.8 -31.8 6.257   3.1  0.00  0.00  0.00  0.00 -0.06  0.00  0.00  0.25  0.00 11.62  1.00  58.8  5.06   0.0  1.00  1.00  1.00
 2020  91   287   287  30.8 -30.8 6.272   3.1  0.00  0.00  0.00  0.00 -0.06  0.00  0.00  0.28  0.00 15.90  1.00  74.2  4.67   0.0  1.00  1.00  1.00
 2020  92   288   288  30.0 -30.0 6.291   3.3  0.00  0.00  0.00  0.00 -0.06  0.00  0.00  0.16  0.00 15.25  1.00  69.6  4.57   0.0  1.00  1.00  1.00
 2020  93   289   289  30.6 -30.6 6.311   3.6  0.00  0.00  0.00  0.00 -0.06  0.00  0.00  0.15  0.00 11.14  1.00  63.9  5.74   0.0  1.00  1.00  1.00
 2020  94   290   290  31.2 -31.2 6.328   3.4  0.00  0.00  0.00  0.00 -0.06  0.00  0.00  0.25  0.00 11.59  1.00  58.8  5.08   0.0  1.00  1.00  1.00
 2020  95   291   291  28.9 -28.9 6.343   3.2  0.00  0.00  0.00  0.00 -0.06  0.00  0.00  0.33  0.00 11.13  1.00  54.0  4.85   0.0  1.00  1.00  1.00
 2020  96   292   292  30.6 -30.6 6.358   3.9  0.00  0.00  0.11  0.00 -0.06  0.00  0.00  0.41  0.00  8.47  1.00  48.3  5.70   0.0  1.00  1.00  1.00
 2020  97   293   293  30.7 -30.7 6.369   3.4  0.00  0.00  0.25  0.00 -0.06  0.00  0.00  0.50  0.00 13.70  1.00  69.6  5.08   0.0  1.00  1.00  1.00
 2020  98   294   294  30.8 -30.8 6.387   3.4  0.00  0.00  0.00  0.00 -0.06  0.00  0.00  0.20  0.00 10.97  1.00  63.8  5.81   0.0  1.00  1.00  1.00
 2020  99   295   295  29.6 -29.6 6.405   3.3  0.00  0.00  0.00  0.00 -0.06  0.00  0.00  0.22  0.00 12.56  1.00  59.1  4.70   0.0  1.00  1.00  1.00
 2020 100   296   296  29.5 -29.5 6.422   3.7  0.00  0.00  0.00  0.00 -0.06  0.00  0.00  0.30  0.00 12.00  1.00  54.5  4.55   0.0  1.00  1.00  1.00
 2020 101   297   297  30.4 -30.4 6.437   3.7  0.00  0.00  0.06  0.00 -0.06  0.00  0.00  0.37  0.00 14.00  1.00  73.6  5.26   0.0  1.00  1.00  1.00
 2020 102   298   298  28.5 -28.5 6.457   3.5  0.00  0.00  0.00  0.00 -0.06  0.00  0.00  0.14  0.00 15.18  1.00  70.2  4.62   0.0  1.00  1.00  1.00
 2020 103   299   299  30.7 -30.7 6.480   4.0  0.00  0.00  0.00  0.00 -0.06  0.00  0.00  0.14  0.00 10.98  1.00  64.4  5.86   0.0  1.00  1.00  1.00
 2020 104   300   300  31.5 -31.5 6.498   3.4  0.00  0.00  0.00  0.00 -0.06  0.00  0.00  0.22  0.00 10.89  1.00  59.0  5.41   0.0  1.00  1.00  1.00
 2020 105   301   301  31.9 -31.9 6.512   3.1  0.00  0.00  0.00  0.00 -0.06  0.00  0.00  0.31  0.00  8.95  1.00  53.0  5.93   0.0  1.00  1.00  1.00
 2020 106   302   302  31.9 -31.9 6.524   3.0  0.00  0.00  0.11  0.00 -0.06  0.00  0.00  0.41  0.00  9.15  1.00  47.8  5.22   0.0  1.00  1.00  1.00
 2020 107   303   303  31.5 -31.5 6.534   3.0  0.00  0.00  0.24  0.00 -0.06  0.00  0.00  0.49  0.00  8.32  1.00  42.7  5.13   0.0  1.00  1.00  1.00
 2020 108   304   304  30.9 -30.9 6.543   3.1  0.00  0.00  0.36  0.00 -0.06  0.00  0.00  0.57  0.00 12.62  1.00  66.4  5.26   0.0  1.00  1.00  1.00
 2020 109   305   305  31.0 -31.0 6.561   3.3  0.00  0.00  0.00  0.00 -0.06  0.00  0.00  0.22  0.00 14.53  1.00  62.1  4.28   0.0  1.00  1.00  1.00
 2020 110   306   306  30.0 -30.0 6.578   3.3  0.00  0.00  0.00  0.00 -0.06  0.00  0.00  0.22  0.00 12.52  1.00  57.5  4.60   0.0  1.00  1.00  1.00
 2020 111   307   307  30.0 -30.0 6.595   3.6  0.00  0.00  0.00  0.00 -0.06  0.00  0.00  0.30  0.00 11.56  1.00  52.9  4.58   0.0  1.00  1.00  1.00
 2020 112   308   308  31.3 -31.3 6.609   3.6  0.00  0.00  0.07  0.00 -0.06  0.00  0.00  0.38  0.00  9.34  1.00  47.7  5.11   0.0  1.00  1.00  1.00
 2020 113   309   309  30.7 -30.7 6.621   3.2  0.00  0.00  0.20  0.00 -0.06  0.00  0.00  0.47  0.00  9.40  1.00  43.1  4.58   0.0  1.00  1.00  1.00
 2020 114   310   310  30.1 -30.1 6.631   3.4  0.00  0.00  0.32  0.00 -0.06  0.00  0.00  0.55  0.00 13.72  1.00  65.1  4.75   0.0  1.00  1.00  1.00
 2020 115   311   311  30.4 -30.4 6.649   3.5  0.00  0.00  0.00  0.00 -0.06  0.00  0.00  0.22  0.00 12.70  1.00  60.3  4.75   0.0  1.00  1.00  1.00
 2020 116   312   312  30.5 -30.5 6.667   3.5  0.00  0.00  0.00  0.00 -0.06  0.00  0.00  0.24  0.00 13.09  1.00  59.7  4.56   0.0  1.00  1.00  1.00
 2020 117   313   313  29.8 -29.8 6.684   3.4  0.00  0.00  0.00  0.00 -0.06  0.00  0.00  0.25  0.00 12.66  1.00  59.7  4.72   0.0  1.00  1.00  1.00
 2020 118   314   314  29.5 -29.5 6.702   3.6  0.00  0.00  0.00  0.00 -0.06  0.00  0.00  0.26  0.00 12.98  1.00  55.5  4.27   0.0  1.00  1.00  1.00
 2020 119   315   315  30.4 -30.4 6.719   3.7  0.00  0.00  0.00  0.00 -0.06  0.00  0.00  0.31  0.00 10.25  1.00  50.6  4.93   0.0  1.00  1.00  1.00
 2020 120   316   316  31.6 -31.6 6.733   3.5  0.00  0.00  0.10  0.00 -0.06  0.00  0.00  0.40  0.00 10.07  1.00  49.9  4.96   0.0  1.00  1.00  1.00
 2020 121   317   317  29.9 -29.9 6.746   3.1  0.00  0.00  0.10  0.00 -0.06  0.00  0.00  0.40  0.00 12.88  1.00  58.1  4.51   0.0  1.00  1.00  1.00
 2020 122   318   318  29.9 -29.9 6.763   3.6  0.00  0.00  0.00  0.00 -0.06  0.00  0.00  0.27  0.00 13.44  1.00  62.6  4.66   0.0  1.00  1.00  1.00
 2020 123   319   319  29.8 -29.8 6.782   3.6  0.00  0.00  0.00  0.00 -0.06  0.00  0.00  0.22  0.00 12.81  1.00  58.1  4.53   0.0  1.00  1.00  1.00
 2020 124   320   320  28.6 -28.6 6.800   3.6  0.00  0.00  0.00  0.00 -0.06  0.00  0.00  0.26  0.00 13.51  1.00  58.8  4.36   0.0  1.00  1.00  1.00
 2020 125   321   321  29.0 -29.0 6.819   4.0  0.00  0.00  0.00  0.00 -0.06  0.00  0.00  0.26  0.00 12.16  1.00  57.3  4.71   0.0  1.00  1.00  1.00
 2020 126   322   322  30.1 -30.1 6.838   3.9  0.00  0.00  0.00  0.00 -0.06  0.00  0.00  0.28  0.00 10.96  1.00  52.5  4.79   0.0  1.00  1.00  1.00
 2020 127   323   323  30.6 -30.6 6.853   3.5  0.00  0.00  0.03  0.00 -0.06  0.00  0.00  0.35  0.00  9.83  1.00  47.6  4.85   0.0  1.00  1.00  1.00
 2020 128   324   324  29.9 -29.9 6.866   3.4  0.00  0.00  0.16  0.00 -0.06  0.00  0.00  0.44  0.00 10.22  1.00  43.4  4.25   0.0  1.00  1.00  1.00
 2020 129   325   325  29.3 -29.3 6.878   3.6  0.00  0.00  0.27  0.00 -0.06  0.00  0.00  0.51  0.00  9.91  1.00  39.4  3.98   0.0  1.00  1.00  1.00
 2020 130   326   326  28.5 -28.5 6.888   3.8  0.00  0.00  0.38  0.00 -0.06  0.00  0.00  0.59  0.00 14.11  1.00  69.2  4.90   0.0  1.00  1.00  1.00
 2020 131   327   327  29.5 -29.5 6.910   4.0  0.00  0.00  0.00  0.00 -0.06  0.00  0.00  0.16  0.00 16.21  1.00  69.8  4.30   0.0  1.00  1.00  1.00
 2020 132   328   328  29.1 -29.1 6.932   3.7  0.00  0.00  0.00  0.00 -0.06  0.00  0.00  0.14  0.00 15.47  1.00  66.1  4.27   0.0  1.00  1.00  1.00
 2020 133   329   329  29.4 -29.4 6.954   3.8  0.00  0.00  0.00  0.00 -0.06  0.00  0.00  0.14  0.00 14.27  1.00  61.8  4.33   0.0  1.00  1.00  1.00
 2020 134   330   330  28.5 -28.5 6.973   3.7  0.00  0.00  0.00  0.00 -0.06  0.00  0.00  0.21  0.00 13.17  1.00  58.7  4.46   0.0  1.00  1.00  1.00
 2020 135   331   331  29.8 -29.8 6.993   4.0  0.00  0.00  0.00  0.00 -0.06  0.00  0.00  0.26  0.00 11.74  1.00  54.1  4.61   0.0  1.00  1.00  1.00
 2020 136   332   332  29.6 -29.6 7.050  12.9  0.00  0.00  0.00  0.00 -0.06  0.00  0.00  0.34  0.00 13.99  1.00  61.1  4.37   0.0  1.00  1.00  1.00
 2020 137   333   333  30.0 -30.0 7.069   3.7  0.00  0.00  0.00  0.00 -0.06  0.00  0.00  0.22  0.00 12.91  1.00  57.2  4.43   0.0  1.00  1.00  1.00
 2020 138   334   334  30.9 -30.9 7.087   3.6  0.00  0.00  0.00  0.00 -0.06  0.00  0.00  0.26  0.00 11.26  1.00  52.5  4.66   0.0  1.00  1.00  1.00
 2020 139   335   335  30.4 -30.4 7.101   3.3  0.00  0.00  0.02  0.00 -0.06  0.00  0.00  0.34  0.00 12.57  1.00  49.6  3.95   0.0  1.00  1.00  1.00
 2020 140   336   336  29.4 -29.4 7.115   3.5  0.00  0.00  0.09  0.00 -0.06  0.00  0.00  0.39  0.00 11.00  1.00  45.5  4.14   0.0  1.00  1.00  1.00
 2020 141   337   337  29.4 -29.4 7.129   3.8  0.00  0.00  0.20  0.00 -0.06  0.00  0.00  0.47  0.00 12.13  1.00  48.9  4.03   0.0  1.00  1.00  1.00
 2020 142   338   338  29.4 -29.4 7.143   3.7  0.00  0.00  0.12  0.00 -0.06  0.00  0.00  0.41  0.00 20.71  1.00  83.4  4.03   0.0  1.00  1.00  1.00
 2020 143   339   339  29.8 -29.8 7.167   3.8  0.00  0.00  0.00  0.00 -0.06  0.00  0.00  0.05  0.00 22.40  1.00  87.9  3.93   0.0  1.00  1.00  1.00
 2020 144   340   340  30.4 -30.4 7.191   3.6  0.00  0.00  0.00  0.00 -0.06  0.00  0.00  0.03  0.00 19.80  1.00  86.8  4.38   0.0  1.00  1.00  1.00
 2020 145   341   341  28.2 -28.2 7.214   3.5  0.00  0.00  0.00  0.00 -0.06  0.00  0.00  0.01  0.00 23.73  1.00  93.5  3.94   0.0  1.00  1.00  1.00
 2020 146   342   342  28.1 -28.1 7.241   4.1  0.00  0.00  0.00  0.00 -0.06  0.00  0.00  0.00  0.00 22.08  1.00  89.6  4.06   0.0  1.00  1.00  1.00
 2020 147   343   343  30.4 -30.4 7.268   4.1  0.00  0.00  0.00  0.00 -0.06  0.00  0.00  0.00  0.00 19.35  1.00  85.4  4.41   0.0  1.00  1.00  1.00
 2020 148   344   344  29.5 -29.5 7.291   3.5  0.00  0.00  0.00  0.00 -0.06  0.00  0.00  0.01  0.00 20.10  1.00  81.4  4.05   0.0  1.00  1.00  1.00
 2020 149   345   345  28.3 -28.3 7.315   3.7  0.00  0.00  0.00  0.00 -0.06  0.00  0.00  0.06  0.00 23.06  1.00 104.1  4.52   0.0  1.00  1.00  1.00
 2020 150   346   346  28.6 -28.6 7.341   4.0  0.00  0.00  0.00  0.00 -0.06  0.00  0.00  0.00  0.00 25.12  1.00 109.7  4.37   0.0  1.00  1.00  1.00
 2020 151   347   347  29.2 -29.2 7.368   4.0  0.00  0.00  0.00  0.00 -0.06  0.00  0.00  0.00  0.00 25.37  1.00 106.9  4.21   0.0  1.00  1.00  1.00
 2020 152   348   348  30.0 -30.0 7.393   3.8  0.00  0.00  0.00  0.00 -0.06  0.00  0.00  0.00  0.00 23.68  1.00 103.9  4.39   0.0  1.00  1.00  1.00
 2020 153   349   349  26.3 -26.3 7.417   3.6  0.00  0.00  0.00  0.00 -0.06  0.00  0.00  0.00  0.00 46.22  1.00 168.5  3.65   0.0  1.00  1.00  1.00
 2020 154   350   350  28.0 -28.0 7.448   4.6  0.00  0.00  0.00  0.00 -0.06  0.00  0.00  0.00  0.00 37.47  1.00 168.6  4.50   0.0  1.00  1.00  1.00
 2020 155   351   351  29.0 -29.0 7.475   4.1  0.00  0.00  0.00  0.00 -0.06  0.00  0.00  0.00  0.00 37.01  1.00 166.9  4.51   0.0  1.00  1.00  1.00
 2020 156   352   352  28.2 -28.2 7.501   3.8  0.00  0.00  0.00  0.00 -0.06  0.00  0.00  0.00  0.00 37.53  1.00 159.0  4.24   0.0  1.00  1.00  1.00
 2020 157   353   353  29.1 -29.1 7.528   4.1  0.00  0.00  0.00  0.00 -0.06  0.00  0.00  0.00  0.00 33.90  1.00 154.6  4.56   0.0  1.00  1.00  1.00
 2020 158   354   354  27.6 -27.6 7.554   3.8  0.00  0.00  0.00  0.00 -0.06  0.00  0.00  0.00  0.00 40.88  1.00 153.2  3.75   0.0  1.00  1.00  1.00
 2020 159   355   355  28.0 -28.0 7.582   4.2  0.00  0.00  0.00  0.00 -0.06  0.00  0.00  0.00  0.00 33.26  1.00 148.8  4.47   0.0  1.00  1.00  1.00
 2020 160   356   356  27.9 -27.9 7.610   4.1  0.00  0.00  0.00  0.00 -0.06  0.00  0.00  0.00  0.00 40.71  1.00 164.1  4.03   0.0  1.00  1.00  1.00
 2020 161   357   357  28.0 -28.0 7.637   4.2  0.00  0.00  0.00  0.00 -0.06  0.00  0.00  0.00  0.00 37.65  1.00 158.1  4.20   0.0  1.00  1.00  1.00
 2020 162   358   358  28.2 -28.2 7.665   4.1  0.00  0.00  0.00  0.00 -0.06  0.00  0.00  0.00  0.00 36.72  1.00 154.3  4.20   0.0  1.00  1.00  1.00
 2020 163   359   359  26.5 -26.5 7.692   4.1  0.00  0.00  0.00  0.00 -0.06  0.00  0.00  0.00  0.00 40.39  1.00 150.6  3.73   0.0  1.00  1.00  1.00
 2020 164   360   360  27.2 -27.2 7.723   4.6  0.00  0.00  0.00  0.00 -0.06  0.00  0.00  0.00  0.00 36.18  1.00 146.5  4.05   0.0  1.00  1.00  1.00
 2020 165   361   361  27.3 -27.3 7.752   4.4  0.00  0.00  0.00  0.00 -0.06  0.00  0.00  0.00  0.00 46.36  1.00 180.2  3.89   0.0  1.00  1.00  1.00
 2020 166   362   362  27.9 -27.9 7.781   4.3  0.00  0.00  0.00  0.00 -0.06  0.00  0.00  0.00  0.00 40.74  1.00 162.7  3.99   0.0  1.00  1.00  1.00
 2020 167   363   363  29.2 -29.2 7.808   4.2  0.00  0.00  0.00  0.00 -0.06  0.00  0.00  0.00  0.00 39.14  1.00 158.0  4.04   0.0  1.00  1.00  1.00
 2020 168   364   364  28.6 -28.6 7.834   3.8  0.00  0.00  0.00  0.00 -0.06  0.00  0.00  0.00  0.00 34.73  1.00 153.6  4.42   0.0  1.00  1.00  1.00
 2020 169   365   365  28.5 -28.5 7.860   4.0  0.00  0.00  0.00  0.00 -0.06  0.00  0.00  0.00  0.00 42.29  1.00 151.8  3.59   0.0  1.00  1.00  1.00
 2020 170   366   366  27.0 -27.0 7.887   4.0  0.00  0.00  0.00  0.00 -0.06  0.00  0.00  0.00  0.00 37.63  1.00 151.6  4.03   0.0  1.00  1.00  1.00
 2020 171   367   367  28.0 -28.0 7.916   4.4  0.00  0.00  0.00  0.00 -0.06  0.00  0.00  0.00  0.00 34.51  1.00 148.2  4.29   0.0  1.00  1.00  1.00
 2020 172   368   368  28.2 -28.2 7.944   4.1  0.00  0.00  0.00  0.00 -0.06  0.00  0.00  0.00  0.00 33.74  1.00 143.9  4.27   0.0  1.00  1.00  1.00
 2020 173   369   369  27.6 -27.6 7.971   4.1  0.00  0.00  0.00  0.00 -0.06  0.00  0.00  0.00  0.00 40.20  1.00 141.5  3.52   0.0  1.00  1.00  1.00
 2020 174   370   370  26.6 -26.6 8.000   4.2  0.00  0.00  0.00  0.00 -0.06  0.00  0.00  0.00  0.00 35.37  1.00 144.0  4.07   0.0  1.00  1.00  1.00
 2020 175   371   371  27.5 -27.5 8.096  14.4  0.00  0.00  0.00  0.00 -0.06  0.00  0.00  0.00  0.00 33.08  1.00 139.8  4.23   0.0  1.00  1.00  1.00
 2020 176   372   372  26.8 -26.8 8.124   4.3  0.00  0.00  0.00  0.00 -0.06  0.00  0.00  0.00  0.00 37.21  1.00 138.7  3.73   0.0  1.00  1.00  1.00
 2020 177   373   373  27.2 -27.2 8.154   4.5  0.00  0.00  0.00  0.00 -0.06  0.00  0.00  0.00  0.00 31.96  1.00 134.5  4.21   0.0  1.00  1.00  1.00
 2020 178   374   374  26.5 -26.5 8.183   4.4  0.00  0.00  0.00  0.00 -0.06  0.00  0.00  0.00  0.00 35.66  1.00 130.9  3.67   0.0  1.00  1.00  1.00
 2020 179   375   375  27.4 -27.4 8.214   4.6  0.00  0.00  0.00  0.00 -0.06  0.00  0.00  0.00  0.00 33.37  1.00 127.1  3.81   0.0  1.00  1.00  1.00
 2020 180   376   376  26.6 -26.6 8.243   4.3  0.00  0.00  0.00  0.00 -0.06  0.00  0.00  0.00  0.00 34.32  1.00 132.9  3.87   0.0  1.00  1.00  1.00
 2020 181   377   377  26.0 -26.0 8.273   4.5  0.00  0.00  0.00  0.00 -0.06  0.00  0.00  0.00  0.00 40.43  1.00 132.1  3.27   0.0  1.00  1.00  1.00
 2020 182   378   378  27.2 -27.2 8.304   4.7  0.00  0.00  0.00  0.00 -0.06  0.00  0.00  0.00  0.00 37.73  1.00 133.5  3.54   0.0  1.00  1.00  1.00
 2020 183   379   379  28.1 -28.1 8.333   4.4  0.00  0.00  0.00  0.00 -0.06  0.00  0.00  0.00  0.00 32.96  1.00 129.6  3.93   0.0  1.00  1.00  1.00
 2020 184   380   380  28.5 -28.5 8.361   4.1  0.00  0.00  0.00  0.00 -0.06  0.00  0.00  0.00  0.00 31.18  1.00 125.5  4.03   0.0  1.00  1.00  1.00
 2020 185   381   381  26.7 -26.7 8.387   4.0  0.00  0.00  0.00  0.00 -0.06  0.00  0.00  0.00  0.00 40.42  1.00 143.0  3.54   0.0  1.00  1.00  1.00
 2020 186   382   382  25.2 -25.2 8.417   4.5  0.00  0.00  0.00  0.00 -0.06  0.00  0.00  0.00  0.00 41.57  1.00 143.6  3.46   0.0  1.00  1.00  1.00
 2020 187   383   383  26.8 -26.8 8.450   4.9  0.00  0.00  0.00  0.00 -0.06  0.00  0.00  0.00  0.00 39.57  1.00 142.1  3.59   0.0  1.00  1.00  1.00
 2020 188   384   384  27.3 -27.3 8.480   4.5  0.00  0.00  0.00  0.00 -0.06  0.00  0.00  0.00  0.00 34.90  1.00 138.4  3.97   0.0  1.00  1.00  1.00
 2020 189   385   385  26.6 -26.6 8.509   4.3  0.00  0.00  0.00  0.00 -0.06  0.00  0.00  0.00  0.00 36.55  1.00 137.9  3.77   0.0  1.00  1.00  1.00
 2020 190   386   386  27.0 -27.0 8.539   4.5  0.00  0.00  0.00  0.00 -0.06  0.00  0.00  0.00  0.00 34.49  1.00 134.0  3.89   0.0  1.00  1.00  1.00
 2020 191   387   387  27.0 -27.0 8.569   4.4  0.00  0.00  0.00  0.00 -0.06  0.00  0.00  0.00  0.00 35.47  1.00 130.3  3.68   0.0  1.00  1.00  1.00
 2020 192   388   388  24.8 -24.8 8.598   4.4  0.00  0.01  0.00  0.00 -0.06  0.00  0.00  0.00  0.00 51.30  1.00 187.4  3.65   0.0  1.00  1.00  1.00
 2020 193   389   389  25.5 -25.5 8.632   5.0  0.00  0.00  0.00  0.00 -0.06  0.00  0.00  0.00  0.00 50.94  1.00 178.3  3.50   0.0  1.00  1.00  1.00
 2020 194   390   390  26.5 -26.5 8.664   4.8  0.00  0.00  0.00  0.00 -0.06  0.00  0.00  0.00  0.00 43.65  1.00 162.0  3.71   0.0  1.00  1.00  1.00
 2020 195   391   391  26.8 -26.8 8.694   4.6  0.00  0.00  0.00  0.00 -0.06  0.00  0.00  0.00  0.00 43.27  1.00 156.7  3.62   0.0  1.00  1.00  1.00
 2020 196   392   392  25.5 -25.5 8.724   4.5  0.00  0.00  0.00  0.00 -0.06  0.00  0.00  0.00  0.00 45.66  1.00 161.7  3.54   0.0  1.00  1.00  1.00
 2020 197   393   393  25.8 -25.8 8.757   4.9  0.00  0.00  0.00  0.00 -0.06  0.00  0.00  0.00  0.00 45.11  1.00 157.0  3.48   0.0  1.00  1.00  1.00
 2020 198   394   394  26.5 -26.5 8.789   4.8  0.00  0.00  0.00  0.00 -0.06  0.00  0.00  0.00  0.00 46.61  1.00 158.3  3.40   0.0  1.00  1.00  1.00
 2020 199   395   395  26.0 -26.0 8.819   4.6  0.00  0.00  0.00  0.00 -0.06  0.00  0.00  0.00  0.00 45.81  1.00 156.5  3.42   0.0  1.00  1.00  1.00
 2020 200   396   396  26.5 -26.5 8.851   4.7  0.00  0.00  0.00  0.00 -0.06  0.00  0.00  0.00  0.00 42.78  1.00 166.0  3.88   0.0  1.00  1.00  1.00
 2020 201   397   397  26.3 -26.3 8.881   4.6  0.00  0.00  0.00  0.00 -0.06  0.00  0.00  0.00  0.00 50.66  1.00 167.7  3.31   0.0  1.00  1.00  1.00
 2020 202   398   398  25.8 -25.8 8.912   4.6  0.00  0.00  0.00  0.00 -0.06  0.00  0.00  0.00  0.00 47.06  1.00 164.2  3.49   0.0  1.00  1.00  1.00
 2020 203   399   399  26.5 -26.5 8.944   4.8  0.00  0.00  0.00  0.00 -0.06  0.00  0.00  0.00  0.00 45.33  1.00 158.3  3.49   0.0  1.00  1.00  1.00
 2020 204   400   400  27.0 -27.0 8.974   4.6  0.00  0.00  0.00  0.00 -0.06  0.00  0.00  0.00  0.00 41.44  1.00 157.8  3.81   0.0  1.00  1.00  1.00
 2020 205   401   401  25.2 -25.2 9.010   5.4  0.00  0.00  0.00  0.00 -0.06  0.00  0.00  0.00  0.00 40.79  1.00 154.0  3.78   0.0  1.00  1.00  1.00
 2020 206   402   402  26.2 -26.2 9.043   4.9  0.00  0.00  0.00  0.00 -0.06  0.00  0.00  0.00  0.00 41.91  1.00 150.4  3.59   0.0  1.00  1.00  1.00
 2020 207   403   403  25.8 -25.8 9.074   4.7  0.00  0.00  0.00  0.00 -0.06  0.00  0.00  0.00  0.00 45.74  1.00 147.2  3.22   0.0  1.00  1.00  1.00
 2020 208   404   404  26.8 -26.8 9.106   4.8  0.00  0.00  0.00  0.00 -0.06  0.00  0.00  0.00  0.00 40.37  1.00 143.7  3.56   0.0  1.00  1.00  1.00
 2020 209   405   405  25.0 -25.0 9.136   4.5  0.00  0.00  0.00  0.00 -0.06  0.00  0.00  0.00  0.00 45.48  1.00 140.9  3.10   0.0  1.00  1.00  1.00

*DSSAT Cropping System Model Ver. 4.8.0.010 -develop  AUG 03, 2021 18:13:13

*RUN   2        : IITA-TMS-IBA30572         CSYCA048 UYAB1901    2
 MODEL          : CSYCA048 - Cassava
 EXPERIMENT     : UYAB1901 CS UYT_GXE
 DATA PATH      : C:\DSSAT48\CASSAVA\
 TREATMENT  2   : IITA-TMS-IBA30572         CSYCA048
  
!........DATES.......  ...TEMP... STAGE  ...PHENOLOGY....  ....PHOTOSYNTHESIS....  .....GROWTH..... H2O STRESS DETERMINANTS .N STRESS DETERMINANTS.
@YEAR DOY   DAS   DAP TMEAN TCDIF  GSTD    DU DYLFD  TFPD  WFPD  NFPD CO2FD RSFPD  TFGD  WFGD  NFGD WAVRD WUPRD  SWXD  EOPD  SNXD LN%RD SN%RD RN%RD            
 2019 169     0     0  28.9 -99.0     0   0.0  0.00  0.00  0.00  0.00  0.00  0.00  0.00  0.00  0.00 99.90  1.00  26.5  0.00   0.0  1.00  1.00  0.00
 2019 170     1     1  29.0 -29.0     0   0.0  0.00  0.00  0.00  0.00  0.00  0.00  0.00  0.00  0.00 99.90  1.00  31.1  0.00   0.0  1.00  1.00  0.00
 2019 171     2     2  26.7 -26.7     0   0.0  0.00  0.00  0.00  0.00  0.00  0.00  0.00  0.00  0.00 99.90  1.00  28.0  0.00   0.0  1.00  1.00  0.00
 2019 172     3     3  27.7 -27.7     0   0.0  0.00  0.00  0.00  0.00  0.00  0.00  0.00  0.00  0.00 99.90  1.00  25.2  0.00   0.0  1.00  1.00  0.00
 2019 173     4     4  25.8 -25.8     0   0.0  0.00  0.00  0.00  0.00  0.00  0.00  0.00  0.00  0.00 99.90  1.00  28.1  0.00   0.0  1.00  1.00  0.00
 2019 174     5     5  27.6 -27.6     0   0.0  0.00  0.00  0.00  0.00  0.00  0.00  0.00  0.00  0.00 99.90  1.00  25.9  0.00   0.0  1.00  1.00  0.00
 2019 175     6     6  24.4 -24.4     0   0.0  0.00  0.00  0.00  0.00  0.00  0.00  0.00  0.00  0.00 99.90  1.00  32.9  0.00   0.0  1.00  1.00  0.00
 2019 176     7     7  26.4 -26.4     0   0.0  0.00  0.00  0.00  0.00  0.00  0.00  0.00  0.00  0.00 99.90  1.00  27.4  0.00   0.0  1.00  1.00  0.00
 2019 177     8     8  25.0 -25.0     0   3.6  0.00  0.00  0.00  0.00 -0.06  0.00  0.00  0.00  0.00 99.90  1.00  27.5  0.00   0.0  1.00  1.00  1.00
 2019 178     9     9  25.0 -25.0 .0119   5.0  0.00  0.00  0.00  0.00 -0.06  0.00  0.00  0.00  0.00 99.90  1.00  27.8  0.00   0.0  1.00  1.00  1.00
 2019 179    10    10  26.4 -26.4 .0238   5.0  0.00  0.00  0.00  0.00 -0.06  0.00  0.00  0.00  0.00 99.90  1.00  28.1  0.00   0.0  1.00  1.00  1.00
 2019 180    11    11  27.3 -27.3 .0348   4.6  0.00  0.00  0.00  0.00 -0.06  0.00  0.00  0.00  0.00 99.90  1.00  28.5  0.00   0.0  1.00  1.00  1.00
 2019 181    12    12  27.4 -27.4 .0451   4.3  0.00  0.00  0.00  0.00 -0.06  0.00  0.00  0.00  0.00 99.90  1.00  36.2  0.00   0.0  1.00  1.00  1.00
 2019 182    13    13  25.8 -25.8 .0554   4.3  0.00  0.00  0.00  0.00 -0.06  0.00  0.00  0.00  0.00 99.90  1.00  38.5  0.00   0.0  1.00  1.00  1.00
 2019 183    14    14  26.5 -26.5 .0668   4.8  0.00  0.00  0.00  0.00 -0.06  0.00  0.00  0.00  0.00 99.90  1.00  36.6  0.01   0.0  1.00  1.00  1.00
 2019 184    15    15  26.8 -26.8 .0777   4.6  0.00  0.00  0.00  0.00 -0.06  0.00  0.00  0.00  0.00 99.90  1.00  39.1  0.03   0.0  1.00  1.00  1.00
 2019 185    16    16  26.8 -26.8 .0884   4.5  0.00  0.00  0.00  0.00 -0.06  0.00  0.00  0.00  0.00 99.90  1.00  51.4  0.06   0.0  1.00  1.00  1.00
 2019 186    17    17  25.7 -25.7 0.099   4.5  0.00  0.00  0.00  0.00 -0.06  0.00  0.00  0.00  0.00 99.90  1.00  53.3  0.09   0.0  1.00  1.00  1.00
 2019 187    18    18  27.2 -27.2 0.111   4.8  0.00  0.00  0.00  0.00 -0.06  0.00  0.00  0.00  0.00 99.90  1.00  50.0  0.14   0.0  1.00  1.00  1.00
 2019 188    19    19  27.2 -27.2 0.121   4.4  0.00  0.00  0.00  0.00 -0.06  0.00  0.00  0.00  0.00 99.90  1.00  56.4  0.18   0.0  1.00  1.00  1.00
 2019 189    20    20  23.8 -23.8 0.131   4.4  0.00  0.08  0.00  0.00 -0.06  0.00  0.01  0.00  0.00 99.90  1.00  54.8  0.24   0.0  1.00  1.00  1.00
 2019 190    21    21  26.4 -26.4 0.143   5.0  0.00  0.00  0.00  0.00 -0.06  0.00  0.00  0.00  0.00 99.90  1.00  52.0  0.32   0.0  1.00  1.00  1.00
 2019 191    22    22  26.0 -26.0 0.154   4.6  0.00  0.00  0.00  0.00 -0.06  0.00  0.00  0.00  0.00 99.90  1.00  50.5  0.40   0.0  1.00  1.00  1.00
 2019 192    23    23  24.4 -24.4 0.165   4.7  0.00  0.04  0.00  0.00 -0.06  0.00  0.00  0.00  0.00 99.90  1.00  51.0  0.40   0.0  1.00  1.00  1.00
 2019 193    24    24  25.5 -25.5 0.177   5.0  0.00  0.00  0.00  0.00 -0.06  0.00  0.00  0.00  0.00 99.90  1.00  65.4  0.50   0.0  1.00  1.00  1.00
 2019 194    25    25  26.5 -26.5 0.189   4.9  0.00  0.00  0.00  0.00 -0.06  0.00  0.00  0.00  0.00 86.88  1.00  56.4  0.65   0.0  1.00  1.00  1.00
 2019 195    26    26  26.0 -26.0 0.200   4.6  0.00  0.00  0.00  0.00 -0.06  0.00  0.00  0.00  0.00 99.70  1.00  68.9  0.69   0.0  1.00  1.00  1.00
 2019 196    27    27  26.2 -26.2 0.211   4.7  0.00  0.00  0.00  0.00 -0.06  0.00  0.00  0.00  0.00 94.55  1.00  70.5  0.75   0.0  1.00  1.00  1.00
 2019 197    28    28  27.5 -27.5 0.222   4.7  0.00  0.00  0.00  0.00 -0.06  0.00  0.00  0.00  0.00 74.05  1.00  65.5  0.88   0.0  1.00  1.00  1.00
 2019 198    29    29  27.4 -27.4 0.232   4.3  0.00  0.00  0.00  0.00 -0.06  0.00  0.00  0.00  0.00 62.80  1.00  62.5  1.00   0.0  1.00  1.00  1.00
 2019 199    30    30  26.5 -26.5 0.243   4.3  0.00  0.00  0.00  0.00 -0.06  0.00  0.00  0.00  0.00 68.02  1.00  58.9  0.87   0.0  1.00  1.00  1.00
 2019 200    31    31  24.8 -24.8 0.254   4.6  0.00  0.02  0.00  0.00 -0.06  0.00  0.00  0.00  0.00 73.72  1.00  69.1  0.94   0.0  1.00  1.00  1.00
 2019 201    32    32  26.0 -26.0 0.265   5.0  0.00  0.00  0.00  0.00 -0.06  0.00  0.00  0.00  0.00 55.98  1.00  66.9  1.20   0.0  1.00  1.00  1.00
 2019 202    33    33  26.4 -26.4 0.277   4.7  0.00  0.00  0.00  0.00 -0.06  0.00  0.00  0.00  0.00 49.63  1.00  63.1  1.27   0.0  1.00  1.00  1.00
 2019 203    34    34  25.7 -25.7 0.288   4.6  0.00  0.00  0.00  0.00 -0.06  0.00  0.00  0.00  0.00 54.06  1.00  63.5  1.18   0.0  1.00  1.00  1.00
 2019 204    35    35  26.8 -26.8 0.299   4.8  0.00  0.00  0.00  0.00 -0.06  0.00  0.00  0.00  0.00 46.07  1.00  62.6  1.36   0.0  1.00  1.00  1.00
 2019 205    36    36  27.7 -27.7 0.310   4.5  0.00  0.00  0.00  0.00 -0.06  0.00  0.00  0.00  0.00 45.89  1.00  61.4  1.34   0.0  1.00  1.00  1.00
 2019 206    37    37  24.8 -24.8 0.320   4.2  0.00  0.01  0.00  0.00 -0.06  0.00  0.00  0.00  0.00 51.15  1.00  66.8  1.31   0.0  1.00  1.00  1.00
 2019 207    38    38  25.8 -25.8 0.332   5.0  0.00  0.00  0.00  0.00 -0.06  0.00  0.00  0.00  0.00 49.71  1.00  65.2  1.31   0.0  1.00  1.00  1.00
 2019 208    39    39  25.9 -25.9 0.343   4.8  0.00  0.00  0.00  0.00 -0.06  0.00  0.00  0.00  0.00 43.89  1.00  63.4  1.45   0.0  1.00  1.00  1.00
 2019 209    40    40  26.1 -26.1 0.354   4.8  0.00  0.00  0.00  0.00 -0.06  0.00  0.00  0.00  0.00 39.13  1.00  61.7  1.58   0.0  1.00  1.00  1.00
 2019 210    41    41  26.2 -26.2 0.366   4.7  0.00  0.00  0.00  0.00 -0.06  0.00  0.00  0.00  0.00 37.99  1.00  60.1  1.58   0.0  1.00  1.00  1.00
 2019 211    42    42  26.5 -26.5 0.376   4.6  0.00  0.00  0.00  0.00 -0.06  0.00  0.00  0.05  0.00 37.31  1.00  58.7  1.57   0.0  1.00  1.00  1.00
 2019 212    43    43  26.2 -26.2 0.386   4.6  0.00  0.00  0.00  0.00 -0.06  0.00  0.00  0.11  0.00 33.44  1.00  57.2  1.71   0.0  1.00  1.00  1.00
 2019 213    44    44  25.8 -25.8 0.395   4.6  0.00  0.00  0.00  0.00 -0.06  0.00  0.00  0.17  0.00 34.11  1.00  62.9  1.84   0.0  1.00  1.00  1.00
 2019 214    45    45  25.1 -25.1 0.406   4.8  0.00  0.00  0.00  0.00 -0.06  0.00  0.00  0.02  0.00 37.29  1.00  67.0  1.80   0.0  1.00  1.00  1.00
 2019 215    46    46  25.8 -25.8 0.418   5.0  0.00  0.00  0.00  0.00 -0.06  0.00  0.00  0.00  0.00 35.18  1.00  64.7  1.84   0.0  1.00  1.00  1.00
 2019 216    47    47  26.0 -26.0 0.429   4.8  0.00  0.00  0.00  0.00 -0.06  0.00  0.00  0.00  0.00 29.85  1.00  62.4  2.09   0.0  1.00  1.00  1.00
 2019 217    48    48  25.8 -25.8 0.440   4.7  0.00  0.00  0.00  0.00 -0.06  0.00  0.00  0.08  0.00 38.03  1.00  77.0  2.02   0.0  1.00  1.00  1.00
 2019 218    49    49  25.8 -25.8 0.451   4.8  0.00  0.00  0.00  0.00 -0.06  0.00  0.00  0.00  0.00 40.25  1.00  82.3  2.05   0.0  1.00  1.00  1.00
 2019 219    50    50  24.2 -24.2 0.462   4.8  0.00  0.06  0.00  0.00 -0.06  0.00  0.00  0.00  0.00 44.65  1.00  87.1  1.95   0.0  1.00  1.00  1.00
 2019 220    51    51  24.7 -24.7 0.474   5.0  0.00  0.02  0.00  0.00 -0.06  0.00  0.00  0.00  0.00 40.83  1.00  85.0  2.08   0.0  1.00  1.00  1.00
 2019 221    52    52  25.6 -25.6 0.486   5.0  0.00  0.00  0.00  0.00 -0.06  0.00  0.00  0.00  0.00 36.34  1.00  83.0  2.28   0.0  1.00  1.00  1.00
 2019 222    53    53  26.4 -26.4 0.498   4.8  0.00  0.00  0.00  0.00 -0.06  0.00  0.00  0.00  0.00 33.14  1.00  80.1  2.42   0.0  1.00  1.00  1.00
 2019 223    54    54  26.5 -26.5 0.509   4.6  0.00  0.00  0.00  0.00 -0.06  0.00  0.00  0.00  0.00 36.38  1.00  83.7  2.30   0.0  1.00  1.00  1.00
 2019 224    55    55  24.9 -24.9 0.519   4.6  0.00  0.01  0.00  0.00 -0.06  0.00  0.00  0.00  0.00 34.25  1.00  81.7  2.38   0.0  1.00  1.00  1.00
 2019 225    56    56  26.2 -26.2 0.531   5.0  0.00  0.00  0.00  0.00 -0.06  0.00  0.00  0.00  0.00 31.25  1.00  80.3  2.57   0.0  1.00  1.00  1.00
 2019 226    57    57  26.5 -26.5 0.542   4.7  0.00  0.00  0.00  0.00 -0.06  0.00  0.00  0.00  0.00 28.88  1.00  77.2  2.67   0.0  1.00  1.00  1.00
 2019 227    58    58  25.3 -25.3 0.553   4.6  0.00  0.00  0.00  0.00 -0.06  0.00  0.00  0.00  0.00 29.60  1.00  76.1  2.57   0.0  1.00  1.00  1.00
 2019 228    59    59  25.3 -25.3 0.565   4.9  0.00  0.00  0.00  0.00 -0.06  0.00  0.00  0.00  0.00 29.52  1.00  74.7  2.53   0.0  1.00  1.00  1.00
 2019 229    60    60  26.4 -26.4 0.577   4.9  0.00  0.00  0.00  0.00 -0.06  0.00  0.00  0.00  0.00 26.35  1.00  71.7  2.72   0.0  1.00  1.00  1.00
 2019 230    61    61  25.7 -25.7 0.587   4.6  0.00  0.00  0.00  0.00 -0.06  0.00  0.00  0.08  0.00 34.43  1.00  91.9  2.67   0.0  1.00  1.00  1.00
 2019 231    62    62  25.3 -25.3 0.598   4.8  0.00  0.00  0.00  0.00 -0.06  0.00  0.00  0.00  0.00 34.85  1.00  90.6  2.60   0.0  1.00  1.00  1.00
 2019 232    63    63  26.8 -26.8 0.610   4.9  0.00  0.00  0.00  0.00 -0.06  0.00  0.00  0.00  0.00 30.70  1.00  87.7  2.86   0.0  1.00  1.00  1.00
 2019 233    64    64  26.4 -26.4 0.621   4.5  0.00  0.00  0.00  0.00 -0.06  0.00  0.00  0.00  0.00 38.36  1.00 105.0  2.74   0.0  1.00  1.00  1.00
 2019 234    65    65  25.8 -25.8 0.632   4.6  0.00  0.00  0.00  0.00 -0.06  0.00  0.00  0.00  0.00 34.29  1.00 103.5  3.02   0.0  1.00  1.00  1.00
 2019 235    66    66  25.6 -25.6 0.643   4.8  0.00  0.00  0.00  0.00 -0.06  0.00  0.00  0.00  0.00 46.69  1.00 119.4  2.56   0.0  1.00  1.00  1.00
 2019 236    67    67  25.5 -25.5 0.654   4.8  0.00  0.00  0.00  0.00 -0.06  0.00  0.00  0.00  0.00 42.36  1.00 116.6  2.75   0.0  1.00  1.00  1.00
 2019 237    68    68  25.6 -25.6 0.666   4.8  0.00  0.00  0.00  0.00 -0.06  0.00  0.00  0.00  0.00 36.65  1.00 115.7  3.16   0.0  1.00  1.00  1.00
 2019 238    69    69  25.9 -25.9 0.677   4.8  0.00  0.00  0.00  0.00 -0.06  0.00  0.00  0.00  0.00 34.27  1.00 108.2  3.16   0.0  1.00  1.00  1.00
 2019 239    70    70  24.7 -24.7 0.689   4.7  0.00  0.02  0.00  0.00 -0.06  0.00  0.00  0.00  0.00 37.59  1.00 109.5  2.91   0.0  1.00  1.00  1.00
 2019 240    71    71  26.3 -26.3 0.701   5.0  0.00  0.00  0.00  0.00 -0.06  0.00  0.00  0.00  0.00 35.99  1.00 109.9  3.05   0.0  1.00  1.00  1.00
 2019 241    72    72  26.9 -26.9 0.712   4.6  0.00  0.00  0.00  0.00 -0.06  0.00  0.00  0.00  0.00 31.66  1.00 110.3  3.48   0.0  1.00  1.00  1.00
 2019 242    73    73  26.9 -26.9 0.722   4.5  0.00  0.00  0.00  0.00 -0.06  0.00  0.00  0.00  0.00 34.61  1.00 108.0  3.12   0.0  1.00  1.00  1.00
 2019 243    74    74  25.8 -25.8 0.733   4.5  0.00  0.00  0.00  0.00 -0.06  0.00  0.00  0.00  0.00 41.49  1.00 129.0  3.11   0.0  1.00  1.00  1.00
 2019 244    75    75  26.2 -26.2 0.744   4.8  0.00  0.00  0.00  0.00 -0.06  0.00  0.00  0.00  0.00 32.92  1.00 117.5  3.57   0.0  1.00  1.00  1.00
 2019 245    76    76  26.1 -26.1 0.755   4.7  0.00  0.00  0.00  0.00 -0.06  0.00  0.00  0.00  0.00 34.89  1.00 115.4  3.31   0.0  1.00  1.00  1.00
 2019 246    77    77  27.0 -27.0 0.766   4.7  0.00  0.00  0.00  0.00 -0.06  0.00  0.00  0.00  0.00 34.06  1.00 116.7  3.43   0.0  1.00  1.00  1.00
 2019 247    78    78  27.1 -27.1 0.777   4.4  0.00  0.00  0.00  0.00 -0.06  0.00  0.00  0.00  0.00 37.36  1.00 127.5  3.41   0.0  1.00  1.00  1.00
 2019 248    79    79  26.0 -26.0 0.787   4.4  0.00  0.00  0.00  0.00 -0.06  0.00  0.00  0.00  0.00 42.26  1.00 146.9  3.48   0.0  1.00  1.00  1.00
 2019 249    80    80  26.9 -26.9 0.799   4.7  0.00  0.00  0.00  0.00 -0.06  0.00  0.00  0.00  0.00 37.73  1.00 136.9  3.63   0.0  1.00  1.00  1.00
 2019 250    81    81  27.0 -27.0 0.809   4.5  0.00  0.00  0.00  0.00 -0.06  0.00  0.00  0.00  0.00 38.15  1.00 135.3  3.55   0.0  1.00  1.00  1.00
 2019 251    82    82  26.0 -26.0 0.820   4.4  0.00  0.00  0.00  0.00 -0.06  0.00  0.00  0.00  0.00 40.11  1.00 130.8  3.26   0.0  1.00  1.00  1.00
 2019 252    83    83  25.5 -25.5 0.831   4.7  0.00  0.00  0.00  0.00 -0.06  0.00  0.00  0.00  0.00 39.99  1.00 135.5  3.39   0.0  1.00  1.00  1.00
 2019 253    84    84  26.1 -26.1 0.843   4.8  0.00  0.00  0.00  0.00 -0.06  0.00  0.00  0.00  0.00 43.60  1.00 153.5  3.52   0.0  1.00  1.00  1.00
 2019 254    85    85  26.0 -26.0 0.854   4.7  0.00  0.00  0.00  0.00 -0.06  0.00  0.00  0.00  0.00 43.31  1.00 152.9  3.53   0.0  1.00  1.00  1.00
 2019 255    86    86  26.8 -26.8 0.865   4.7  0.00  0.00  0.00  0.00 -0.06  0.00  0.00  0.00  0.00 40.42  1.00 144.3  3.57   0.0  1.00  1.00  1.00
 2019 256    87    87  27.6 -27.6 0.876   4.5  0.00  0.00  0.00  0.00 -0.06  0.00  0.00  0.00  0.00 39.74  1.00 140.7  3.54   0.0  1.00  1.00  1.00
 2019 257    88    88  27.0 -27.0 0.886   4.3  0.00  0.00  0.00  0.00 -0.06  0.00  0.00  0.00  0.00 39.67  1.00 140.4  3.54   0.0  1.00  1.00  1.00
 2019 258    89    89  26.6 -26.6 0.896   4.4  0.00  0.00  0.00  0.00 -0.06  0.00  0.00  0.00  0.00 37.05  1.00 137.0  3.70   0.0  1.00  1.00  1.00
 2019 259    90    90  25.6 -25.6 0.907   4.5  0.00  0.00  0.00  0.00 -0.06  0.00  0.00  0.00  0.00 49.04  1.00 157.8  3.22   0.0  1.00  1.00  1.00
 2019 260    91    91  26.7 -26.7 0.919   4.8  0.00  0.00  0.00  0.00 -0.06  0.00  0.00  0.00  0.00 43.77  1.00 150.7  3.44   0.0  1.00  1.00  1.00
 2019 261    92    92  27.1 -27.1 0.929   4.5  0.00  0.00  0.00  0.00 -0.06  0.00  0.00  0.00  0.00 43.78  1.00 166.5  3.80   0.0  1.00  1.00  1.00
 2019 262    93    93  25.5 -25.5 0.940   4.4  0.00  0.00  0.00  0.00 -0.06  0.00  0.00  0.00  0.00 48.19  1.00 158.4  3.29   0.0  1.00  1.00  1.00
 2019 263    94    94  26.8 -26.8 0.951   4.8  0.00  0.00  0.00  0.00 -0.06  0.00  0.00  0.00  0.00 33.83  1.00 142.4  4.21   0.0  1.00  1.00  1.00
 2019 264    95    95  26.6 -26.6 0.962   4.5  0.00  0.00  0.00  0.00 -0.06  0.00  0.00  0.00  0.00 35.72  1.00 145.4  4.07   0.0  1.00  1.00  1.00
 2019 265    96    96  27.0 -27.0 0.973   4.5  0.00  0.00  0.00  0.00 -0.06  0.00  0.00  0.00  0.00 34.01  1.00 143.0  4.21   0.0  1.00  1.00  1.00
 2019 266    97    97  27.8 -27.8 0.983   4.4  0.00  0.00  0.00  0.00 -0.06  0.00  0.00  0.00  0.00 39.14  1.00 147.3  3.76   0.0  1.00  1.00  1.00
 2019 267    98    98  27.5 -27.5     1   4.2  0.00  0.00  0.00  0.00 -0.06  0.00  0.00  0.00  0.00 42.47  1.00 161.2  3.80   0.0  1.00  1.00  1.00
 2019 268    99    99  27.7 -27.7 1.009   8.1  0.00  0.00  0.00  0.00 -0.06  0.00  0.00  0.00  0.00 40.54  1.00 168.4  4.15   0.0  1.00  1.00  1.00
 2019 269   100   100  26.5 -26.5 1.016   4.2  0.00  0.00  0.00  0.00 -0.06  0.00  0.00  0.00  0.00 44.15  1.00 168.0  3.80   0.0  1.00  1.00  1.00
 2019 270   101   101  25.9 -25.9 1.024   4.6  0.00  0.00  0.00  0.00 -0.06  0.00  0.00  0.00  0.00 49.81  1.00 176.2  3.54   0.0  1.00  1.00  1.00
 2019 271   102   102  26.9 -26.9 1.031   4.7  0.00  0.00  0.00  0.00 -0.06  0.00  0.00  0.00  0.00 43.41  1.00 177.5  4.09   0.0  1.00  1.00  1.00
 2019 272   103   103  27.1 -27.1 1.039   4.5  0.00  0.00  0.00  0.00 -0.06  0.00  0.00  0.00  0.00 44.89  1.00 170.9  3.81   0.0  1.00  1.00  1.00
 2019 273   104   104  27.4 -27.4 1.046   4.4  0.00  0.00  0.00  0.00 -0.06  0.00  0.00  0.00  0.00 45.16  1.00 165.0  3.65   0.0  1.00  1.00  1.00
 2019 274   105   105  27.3 -27.3 1.053   4.3  0.00  0.00  0.00  0.00 -0.06  0.00  0.00  0.00  0.00 45.49  1.00 171.2  3.76   0.0  1.00  1.00  1.00
 2019 275   106   106  26.1 -26.1 1.061   4.3  0.00  0.00  0.00  0.00 -0.06  0.00  0.00  0.00  0.00 51.32  1.00 179.1  3.49   0.0  1.00  1.00  1.00
 2019 276   107   107  26.0 -26.0 1.068   4.7  0.00  0.00  0.00  0.00 -0.06  0.00  0.00  0.00  0.00 54.12  1.00 190.6  3.52   0.0  1.00  1.00  1.00
 2019 277   108   108  26.7 -26.7 1.076   4.7  0.00  0.00  0.00  0.00 -0.06  0.00  0.00  0.00  0.00 49.45  1.00 184.8  3.74   0.0  1.00  1.00  1.00
 2019 278   109   109  26.9 -26.9 1.084   4.5  0.00  0.00  0.00  0.00 -0.06  0.00  0.00  0.00  0.00 43.02  1.00 163.3  3.80   0.0  1.00  1.00  1.00
 2019 279   110   110  25.7 -25.7 1.091   4.5  0.00  0.00  0.00  0.00 -0.06  0.00  0.00  0.00  0.00 46.30  1.00 164.5  3.55   0.0  1.00  1.00  1.00
 2019 280   111   111  25.6 -25.6 1.099   4.8  0.00  0.00  0.00  0.00 -0.06  0.00  0.00  0.00  0.00 52.34  1.00 172.1  3.29   0.0  1.00  1.00  1.00
 2019 281   112   112  25.8 -25.8 1.107   4.8  0.00  0.00  0.00  0.00 -0.06  0.00  0.00  0.00  0.00 49.33  1.00 173.0  3.51   0.0  1.00  1.00  1.00
 2019 282   113   113  26.9 -26.9 1.115   4.8  0.00  0.00  0.00  0.00 -0.06  0.00  0.00  0.00  0.00 50.73  1.00 168.8  3.33   0.0  1.00  1.00  1.00
 2019 283   114   114  27.0 -27.0 1.123   4.5  0.00  0.00  0.00  0.00 -0.06  0.00  0.00  0.00  0.00 46.97  1.00 167.1  3.56   0.0  1.00  1.00  1.00
 2019 284   115   115  26.6 -26.6 1.130   4.4  0.00  0.00  0.00  0.00 -0.06  0.00  0.00  0.00  0.00 51.65  1.00 191.2  3.70   0.0  1.00  1.00  1.00
 2019 285   116   116  26.8 -26.8 1.138   4.5  0.00  0.00  0.00  0.00 -0.06  0.00  0.00  0.00  0.00 49.65  1.00 188.4  3.80   0.0  1.00  1.00  1.00
 2019 286   117   117  27.0 -27.0 1.145   4.5  0.00  0.00  0.00  0.00 -0.06  0.00  0.00  0.00  0.00 47.51  1.00 176.5  3.71   0.0  1.00  1.00  1.00
 2019 287   118   118  27.3 -27.3 1.152   4.4  0.00  0.00  0.00  0.00 -0.06  0.00  0.00  0.00  0.00 48.35  1.00 188.2  3.89   0.0  1.00  1.00  1.00
 2019 288   119   119  27.8 -27.8 1.160   4.3  0.00  0.00  0.00  0.00 -0.06  0.00  0.00  0.00  0.00 50.17  1.00 179.5  3.58   0.0  1.00  1.00  1.00
 2019 289   120   120  25.5 -25.5 1.167   4.2  0.00  0.00  0.00  0.00 -0.06  0.00  0.00  0.00  0.00 46.33  1.00 180.4  3.89   0.0  1.00  1.00  1.00
 2019 290   121   121  27.3 -27.3 1.175   4.9  0.00  0.00  0.00  0.00 -0.06  0.00  0.00  0.00  0.00 52.39  1.00 176.1  3.36   0.0  1.00  1.00  1.00
[...]
 2020  76   272   272  30.3 -30.3 2.000   6.5  0.00  0.00  0.28  0.00 -0.06  0.00  0.00  0.52  0.00 51.13  1.00  73.8  1.44   0.0  1.00  1.00  1.00
 2020  77   273   273  30.9 -30.9 2.005   3.5  0.00  0.00  0.00  0.00 -0.06  0.00  0.00  0.19  0.00 42.19  1.00  68.6  1.62   0.0  1.00  1.00  1.00
 2020  78   274   274  31.3 -31.3 2.009   3.3  0.00  0.00  0.00  0.00 -0.06  0.00  0.00  0.19  0.00 44.71  1.00  65.6  1.47   0.0  1.00  1.00  1.00
 2020  79   275   275  31.3 -31.3 2.013   3.2  0.00  0.00  0.00  0.00 -0.06  0.00  0.00  0.24  0.00 42.10  1.00  62.8  1.49   0.0  1.00  1.00  1.00
 2020  80   276   276  30.2 -30.2 2.017   3.2  0.00  0.00  0.00  0.00 -0.06  0.00  0.00  0.29  0.00 42.32  1.00  60.4  1.43   0.0  1.00  1.00  1.00
 2020  81   277   277  31.5 -31.5 2.021   3.5  0.00  0.00  0.01  0.00 -0.06  0.00  0.00  0.34  0.00 39.70  1.00  57.8  1.46   0.0  1.00  1.00  1.00
 2020  82   278   278  30.5 -30.5 2.024   3.1  0.00  0.00  0.07  0.00 -0.06  0.00  0.00  0.38  0.00 41.10  1.00  55.5  1.35   0.0  1.00  1.00  1.00
 2020  83   279   279  30.7 -30.7 2.028   3.4  0.00  0.00  0.13  0.00 -0.06  0.00  0.00  0.42  0.00 46.21  1.00  60.7  1.31   0.0  1.00  1.00  1.00
 2020  84   280   280  28.7 -28.7 2.031   3.4  0.00  0.00  0.00  0.00 -0.06  0.00  0.00  0.32  0.00 46.24  1.00  59.3  1.28   0.0  1.00  1.00  1.00
 2020  85   281   281  29.9 -29.9 2.036   3.9  0.00  0.00  0.01  0.00 -0.06  0.00  0.00  0.34  0.00 43.93  1.00  56.6  1.29   0.0  1.00  1.00  1.00
 2020  86   282   282  30.1 -30.1 2.039   3.6  0.00  0.00  0.08  0.00 -0.06  0.00  0.00  0.39  0.00 36.24  1.00  53.9  1.49   0.0  1.00  1.00  1.00
 2020  87   283   283  31.5 -31.5 2.043   3.5  0.00  0.00  0.16  0.00 -0.06  0.00  0.00  0.44  0.00 30.41  1.00  51.1  1.68   0.0  1.00  1.00  1.00
 2020  88   284   284  31.3 -31.3 2.045   3.2  0.00  0.00  0.23  0.00 -0.06  0.00  0.00  0.49  0.00 28.84  1.00  48.4  1.68   0.0  1.00  1.00  1.00
 2020  89   285   285  31.7 -31.7 2.048   3.2  0.00  0.00  0.30  0.00 -0.06  0.00  0.00  0.53  0.00 41.68  1.00  71.9  1.73   0.0  1.00  1.00  1.00
 2020  90   286   286  31.8 -31.8 2.052   3.1  0.00  0.00  0.00  0.00 -0.06  0.00  0.00  0.19  0.00 40.06  1.00  67.1  1.68   0.0  1.00  1.00  1.00
 2020  91   287   287  30.8 -30.8 2.056   3.1  0.00  0.00  0.00  0.00 -0.06  0.00  0.00  0.19  0.00 54.42  1.00  84.5  1.55   0.0  1.00  1.00  1.00
 2020  92   288   288  30.0 -30.0 2.061   3.3  0.00  0.00  0.00  0.00 -0.06  0.00  0.00  0.09  0.00 52.27  1.00  80.4  1.54   0.0  1.00  1.00  1.00
 2020  93   289   289  30.6 -30.6 2.067   3.6  0.00  0.00  0.00  0.00 -0.06  0.00  0.00  0.06  0.00 38.20  1.00  75.1  1.97   0.0  1.00  1.00  1.00
 2020  94   290   290  31.2 -31.2 2.072   3.4  0.00  0.00  0.00  0.00 -0.06  0.00  0.00  0.13  0.00 40.98  1.00  72.0  1.76   0.0  1.00  1.00  1.00
 2020  95   291   291  28.9 -28.9 2.076   3.2  0.00  0.00  0.00  0.00 -0.06  0.00  0.00  0.19  0.00 41.09  1.00  69.1  1.68   0.0  1.00  1.00  1.00
 2020  96   292   292  30.6 -30.6 2.081   3.9  0.00  0.00  0.00  0.00 -0.06  0.00  0.00  0.24  0.00 32.66  1.00  66.0  2.02   0.0  1.00  1.00  1.00
 2020  97   293   293  30.7 -30.7 2.085   3.4  0.00  0.00  0.00  0.00 -0.06  0.00  0.00  0.29  0.00 35.54  1.00  65.2  1.84   0.0  1.00  1.00  1.00
 2020  98   294   294  30.8 -30.8 2.089   3.4  0.00  0.00  0.00  0.00 -0.06  0.00  0.00  0.29  0.00 28.87  1.00  62.0  2.15   0.0  1.00  1.00  1.00
 2020  99   295   295  29.6 -29.6 2.093   3.3  0.00  0.00  0.02  0.00 -0.06  0.00  0.00  0.35  0.00 33.38  1.00  59.1  1.77   0.0  1.00  1.00  1.00
 2020 100   296   296  29.5 -29.5 2.096   3.7  0.00  0.00  0.10  0.00 -0.06  0.00  0.00  0.40  0.00 32.18  1.00  56.4  1.75   0.0  1.00  1.00  1.00
 2020 101   297   297  30.4 -30.4 2.100   3.7  0.00  0.00  0.16  0.00 -0.06  0.00  0.00  0.44  0.00 49.86  1.00 102.3  2.05   0.0  1.00  1.00  1.00
 2020 102   298   298  28.5 -28.5 2.106   3.5  0.00  0.00  0.00  0.00 -0.06  0.00  0.00  0.00  0.00 53.71  1.00  99.6  1.85   0.0  1.00  1.00  1.00
 2020 103   299   299  30.7 -30.7 2.112   4.0  0.00  0.00  0.00  0.00 -0.06  0.00  0.00  0.00  0.00 39.28  1.00  94.5  2.41   0.0  1.00  1.00  1.00
 2020 104   300   300  31.5 -31.5 2.118   3.4  0.00  0.00  0.00  0.00 -0.06  0.00  0.00  0.00  0.00 40.00  1.00  89.6  2.24   0.0  1.00  1.00  1.00
 2020 105   301   301  31.9 -31.9 2.123   3.1  0.00  0.00  0.00  0.00 -0.06  0.00  0.00  0.03  0.00 33.89  1.00  84.2  2.49   0.0  1.00  1.00  1.00
 2020 106   302   302  31.9 -31.9 2.128   3.0  0.00  0.00  0.00  0.00 -0.06  0.00  0.00  0.10  0.00 35.84  1.00  80.7  2.25   0.0  1.00  1.00  1.00
 2020 107   303   303  31.5 -31.5 2.132   3.0  0.00  0.00  0.00  0.00 -0.06  0.00  0.00  0.16  0.00 34.46  1.00  77.4  2.25   0.0  1.00  1.00  1.00
 2020 108   304   304  30.9 -30.9 2.136   3.1  0.00  0.00  0.00  0.00 -0.06  0.00  0.00  0.21  0.00 31.66  1.00  74.1  2.34   0.0  1.00  1.00  1.00
 2020 109   305   305  31.0 -31.0 2.140   3.3  0.00  0.00  0.00  0.00 -0.06  0.00  0.00  0.26  0.00 36.67  1.00  71.2  1.94   0.0  1.00  1.00  1.00
 2020 110   306   306  30.0 -30.0 2.144   3.3  0.00  0.00  0.00  0.00 -0.06  0.00  0.00  0.31  0.00 32.20  1.00  68.5  2.13   0.0  1.00  1.00  1.00
 2020 111   307   307  30.0 -30.0 2.148   3.6  0.00  0.00  0.02  0.00 -0.06  0.00  0.00  0.35  0.00 41.56  1.00  90.4  2.18   0.0  1.00  1.00  1.00
 2020 112   308   308  31.3 -31.3 2.153   3.6  0.00  0.00  0.00  0.00 -0.06  0.00  0.00  0.02  0.00 34.29  1.00  85.6  2.49   0.0  1.00  1.00  1.00
 2020 113   309   309  30.7 -30.7 2.159   3.2  0.00  0.00  0.00  0.00 -0.06  0.00  0.00  0.02  0.00 36.23  1.00  81.8  2.26   0.0  1.00  1.00  1.00
 2020 114   310   310  30.1 -30.1 2.164   3.4  0.00  0.00  0.00  0.00 -0.06  0.00  0.00  0.08  0.00 32.86  1.00  78.4  2.39   0.0  1.00  1.00  1.00
 2020 115   311   311  30.4 -30.4 2.169   3.5  0.00  0.00  0.00  0.00 -0.06  0.00  0.00  0.14  0.00 31.06  1.00  74.7  2.41   0.0  1.00  1.00  1.00
 2020 116   312   312  30.5 -30.5 2.174   3.5  0.00  0.00  0.00  0.00 -0.06  0.00  0.00  0.20  0.00 33.19  1.00  76.9  2.32   0.0  1.00  1.00  1.00
 2020 117   313   313  29.8 -29.8 2.178   3.4  0.00  0.00  0.00  0.00 -0.06  0.00  0.00  0.14  0.00 31.64  1.00  77.3  2.44   0.0  1.00  1.00  1.00
 2020 118   314   314  29.5 -29.5 2.184   3.6  0.00  0.00  0.00  0.00 -0.06  0.00  0.00  0.13  0.00 32.73  1.00  73.6  2.25   0.0  1.00  1.00  1.00
 2020 119   315   315  30.4 -30.4 2.189   3.7  0.00  0.00  0.00  0.00 -0.06  0.00  0.00  0.17  0.00 26.55  1.00  69.7  2.62   0.0  1.00  1.00  1.00
 2020 120   316   316  31.6 -31.6 2.193   3.5  0.00  0.00  0.00  0.00 -0.06  0.00  0.00  0.23  0.00 26.19  1.00  70.1  2.68   0.0  1.00  1.00  1.00
 2020 121   317   317  29.9 -29.9 2.197   3.1  0.00  0.00  0.00  0.00 -0.06  0.00  0.00  0.22  0.00 31.92  1.00  78.8  2.47   0.0  1.00  1.00  1.00
 2020 122   318   318  29.9 -29.9 2.203   3.6  0.00  0.00  0.00  0.00 -0.06  0.00  0.00  0.12  0.00 31.70  1.00  83.7  2.64   0.0  1.00  1.00  1.00
 2020 123   319   319  29.8 -29.8 2.208   3.6  0.00  0.00  0.00  0.00 -0.06  0.00  0.00  0.07  0.00 30.36  1.00  79.4  2.61   0.0  1.00  1.00  1.00
 2020 124   320   320  28.6 -28.6 2.214   3.6  0.00  0.00  0.00  0.00 -0.06  0.00  0.00  0.05  0.00 32.03  1.00  80.9  2.53   0.0  1.00  1.00  1.00
 2020 125   321   321  29.0 -29.0 2.220   4.0  0.00  0.00  0.00  0.00 -0.06  0.00  0.00  0.04  0.00 28.99  1.00  79.9  2.76   0.0  1.00  1.00  1.00
 2020 126   322   322  30.1 -30.1 2.226   3.9  0.00  0.00  0.00  0.00 -0.06  0.00  0.00  0.05  0.00 26.63  1.00  75.3  2.83   0.0  1.00  1.00  1.00
 2020 127   323   323  30.6 -30.6 2.232   3.5  0.00  0.00  0.00  0.00 -0.06  0.00  0.00  0.10  0.00 24.68  1.00  70.9  2.87   0.0  1.00  1.00  1.00
 2020 128   324   324  29.9 -29.9 2.237   3.4  0.00  0.00  0.00  0.00 -0.06  0.00  0.00  0.17  0.00 26.55  1.00  67.2  2.53   0.0  1.00  1.00  1.00
 2020 129   325   325  29.3 -29.3 2.241   3.6  0.00  0.00  0.00  0.00 -0.06  0.00  0.00  0.23  0.00 26.50  1.00  63.6  2.40   0.0  1.00  1.00  1.00
 2020 130   326   326  28.5 -28.5 2.246   3.8  0.00  0.00  0.00  0.00 -0.06  0.00  0.00  0.29  0.00 22.22  1.00  66.4  2.99   0.0  1.00  1.00  1.00
 2020 131   327   327  29.5 -29.5 2.251   4.0  0.00  0.00  0.00  0.00 -0.06  0.00  0.00  0.23  0.00 25.49  1.00  67.7  2.66   0.0  1.00  1.00  1.00
 2020 132   328   328  29.1 -29.1 2.256   3.7  0.00  0.00  0.00  0.00 -0.06  0.00  0.00  0.21  0.00 24.02  1.00  64.2  2.67   0.0  1.00  1.00  1.00
 2020 133   329   329  29.4 -29.4 2.260   3.8  0.00  0.00  0.00  0.00 -0.06  0.00  0.00  0.24  0.00 22.07  1.00  60.1  2.72   0.0  1.00  1.00  1.00
 2020 134   330   330  28.5 -28.5 2.265   3.7  0.00  0.00  0.00  0.00 -0.06  0.00  0.00  0.32  0.00 20.40  1.00  57.6  2.83   0.0  1.00  1.00  1.00
 2020 135   331   331  29.8 -29.8 2.269   4.0  0.00  0.00  0.03  0.00 -0.06  0.00  0.00  0.35  0.00 18.00  1.00  53.3  2.96   0.0  1.00  1.00  1.00
 2020 136   332   332  29.6 -29.6 2.272   3.6  0.00  0.00  0.14  0.00 -0.06  0.00  0.00  0.43  0.00 21.76  1.00  61.0  2.80   0.0  1.00  1.00  1.00
 2020 137   333   333  30.0 -30.0 2.277   3.7  0.00  0.00  0.00  0.00 -0.06  0.00  0.00  0.29  0.00 20.21  1.00  57.5  2.85   0.0  1.00  1.00  1.00
 2020 138   334   334  30.9 -30.9 2.281   3.6  0.00  0.00  0.00  0.00 -0.06  0.00  0.00  0.33  0.00 17.51  1.00  53.0  3.03   0.0  1.00  1.00  1.00
 2020 139   335   335  30.4 -30.4 2.284   3.3  0.00  0.00  0.12  0.00 -0.06  0.00  0.00  0.41  0.00 20.02  1.00  50.8  2.54   0.0  1.00  1.00  1.00
 2020 140   336   336  29.4 -29.4 2.287   3.5  0.00  0.00  0.17  0.00 -0.06  0.00  0.00  0.45  0.00 17.77  1.00  47.1  2.65   0.0  1.00  1.00  1.00
 2020 141   337   337  29.4 -29.4 2.290   3.8  0.00  0.00  0.27  0.00 -0.06  0.00  0.00  0.51  0.00 30.56  1.00  78.7  2.57   0.0  1.00  1.00  1.00
 2020 142   338   338  29.4 -29.4 2.296   3.7  0.00  0.00  0.00  0.00 -0.06  0.00  0.00  0.10  0.00 43.97  1.00 111.6  2.54   0.0  1.00  1.00  1.00
 2020 143   339   339  29.8 -29.8 2.302   3.8  0.00  0.00  0.00  0.00 -0.06  0.00  0.00  0.00  0.00 46.81  1.00 116.3  2.49   0.0  1.00  1.00  1.00
 2020 144   340   340  30.4 -30.4 2.308   3.6  0.00  0.00  0.00  0.00 -0.06  0.00  0.00  0.00  0.00 41.96  1.00 115.7  2.76   0.0  1.00  1.00  1.00
 2020 145   341   341  28.2 -28.2 2.314   3.5  0.00  0.00  0.00  0.00 -0.06  0.00  0.00  0.00  0.00 49.59  1.00 122.8  2.48   0.0  1.00  1.00  1.00
 2020 146   342   342  28.1 -28.1 2.321   4.1  0.00  0.00  0.00  0.00 -0.06  0.00  0.00  0.00  0.00 47.69  1.00 119.3  2.50   0.0  1.00  1.00  1.00
 2020 147   343   343  30.4 -30.4 2.328   4.1  0.00  0.00  0.00  0.00 -0.06  0.00  0.00  0.00  0.00 42.84  1.00 115.5  2.70   0.0  1.00  1.00  1.00
 2020 148   344   344  29.5 -29.5 2.333   3.5  0.00  0.00  0.00  0.00 -0.06  0.00  0.00  0.00  0.00 45.41  1.00 112.0  2.47   0.0  1.00  1.00  1.00
 2020 149   345   345  28.3 -28.3 2.340   3.7  0.00  0.00  0.00  0.00 -0.06  0.00  0.00  0.00  0.00 48.62  1.00 135.1  2.78   0.0  1.00  1.00  1.00
 2020 150   346   346  28.6 -28.6 2.346   4.0  0.00  0.00  0.00  0.00 -0.06  0.00  0.00  0.00  0.00 52.34  1.00 141.2  2.70   0.0  1.00  1.00  1.00
 2020 151   347   347  29.2 -29.2 2.353   4.0  0.00  0.00  0.00  0.00 -0.06  0.00  0.00  0.00  0.00 54.17  1.00 138.8  2.56   0.0  1.00  1.00  1.00
 2020 152   348   348  30.0 -30.0 2.359   3.8  0.00  0.00  0.00  0.00 -0.06  0.00  0.00  0.00  0.00 50.69  1.00 136.2  2.69   0.0  1.00  1.00  1.00
 2020 153   349   349  26.3 -26.3 2.365   3.6  0.00  0.00  0.00  0.00 -0.06  0.00  0.00  0.00  0.00 84.33  1.00 186.8  2.22   0.0  1.00  1.00  1.00
 2020 154   350   350  28.0 -28.0 2.373   4.6  0.00  0.00  0.00  0.00 -0.06  0.00  0.00  0.00  0.00 66.07  1.00 181.2  2.74   0.0  1.00  1.00  1.00
 2020 155   351   351  29.0 -29.0 2.380   4.1  0.00  0.00  0.00  0.00 -0.06  0.00  0.00  0.00  0.00 63.94  1.00 174.9  2.73   0.0  1.00  1.00  1.00
 2020 156   352   352  28.2 -28.2 2.386   3.8  0.00  0.00  0.00  0.00 -0.06  0.00  0.00  0.00  0.00 62.97  1.00 160.4  2.55   0.0  1.00  1.00  1.00
 2020 157   353   353  29.1 -29.1 2.393   4.1  0.00  0.00  0.00  0.00 -0.06  0.00  0.00  0.00  0.00 56.34  1.00 155.8  2.77   0.0  1.00  1.00  1.00
 2020 158   354   354  27.6 -27.6 2.399   3.8  0.00  0.00  0.00  0.00 -0.06  0.00  0.00  0.00  0.00 68.74  1.00 155.1  2.26   0.0  1.00  1.00  1.00
 2020 159   355   355  28.0 -28.0 2.406   4.2  0.00  0.00  0.00  0.00 -0.06  0.00  0.00  0.00  0.00 56.31  1.00 151.0  2.68   0.0  1.00  1.00  1.00
 2020 160   356   356  27.9 -27.9 2.413   4.1  0.00  0.00  0.00  0.00 -0.06  0.00  0.00  0.00  0.00 67.93  1.00 166.7  2.45   0.0  1.00  1.00  1.00
 2020 161   357   357  28.0 -28.0 2.420   4.2  0.00  0.00  0.00  0.00 -0.06  0.00  0.00  0.00  0.00 62.24  1.00 158.6  2.55   0.0  1.00  1.00  1.00
 2020 162   358   358  28.2 -28.2 2.427   4.1  0.00  0.00  0.00  0.00 -0.06  0.00  0.00  0.00  0.00 61.05  1.00 155.3  2.54   0.0  1.00  1.00  1.00
 2020 163   359   359  26.5 -26.5 2.434   4.1  0.00  0.00  0.00  0.00 -0.06  0.00  0.00  0.00  0.00 66.29  1.00 152.0  2.29   0.0  1.00  1.00  1.00
 2020 164   360   360  27.2 -27.2 2.442   4.6  0.00  0.00  0.00  0.00 -0.06  0.00  0.00  0.00  0.00 59.90  1.00 148.3  2.48   0.0  1.00  1.00  1.00
 2020 165   361   361  27.3 -27.3 2.449   4.4  0.00  0.00  0.00  0.00 -0.06  0.00  0.00  0.00  0.00 76.22  1.00 180.7  2.37   0.0  1.00  1.00  1.00
 2020 166   362   362  27.9 -27.9 2.456   4.3  0.00  0.00  0.00  0.00 -0.06  0.00  0.00  0.00  0.00 66.38  1.00 163.1  2.46   0.0  1.00  1.00  1.00
 2020 167   363   363  29.2 -29.2 2.463   4.2  0.00  0.00  0.00  0.00 -0.06  0.00  0.00  0.00  0.00 64.16  1.00 158.5  2.47   0.0  1.00  1.00  1.00
 2020 168   364   364  28.6 -28.6 2.469   3.8  0.00  0.00  0.00  0.00 -0.06  0.00  0.00  0.00  0.00 57.96  1.00 154.7  2.67   0.0  1.00  1.00  1.00
 2020 169   365   365  28.5 -28.5 2.476   4.0  0.00  0.00  0.00  0.00 -0.06  0.00  0.00  0.00  0.00 70.49  1.00 153.5  2.18   0.0  1.00  1.00  1.00
 2020 170   366   366  27.0 -27.0 2.483   4.0  0.00  0.00  0.00  0.00 -0.06  0.00  0.00  0.00  0.00 63.35  1.00 153.9  2.43   0.0  1.00  1.00  1.00
 2020 171   367   367  28.0 -28.0 2.490   4.4  0.00  0.00  0.00  0.00 -0.06  0.00  0.00  0.00  0.00 58.39  1.00 150.9  2.58   0.0  1.00  1.00  1.00
 2020 172   368   368  28.2 -28.2 2.497   4.1  0.00  0.00  0.00  0.00 -0.06  0.00  0.00  0.00  0.00 56.01  1.00 147.0  2.62   0.0  1.00  1.00  1.00
 2020 173   369   369  27.6 -27.6 2.504   4.1  0.00  0.00  0.00  0.00 -0.06  0.00  0.00  0.00  0.00 67.60  1.00 145.2  2.15   0.0  1.00  1.00  1.00
 2020 174   370   370  26.6 -26.6 2.511   4.2  0.00  0.00  0.00  0.00 -0.06  0.00  0.00  0.00  0.00 59.99  1.00 148.2  2.47   0.0  1.00  1.00  1.00
 2020 175   371   371  27.5 -27.5 2.518   4.5  0.00  0.00  0.00  0.00 -0.06  0.00  0.00  0.00  0.00 55.58  1.00 144.4  2.60   0.0  1.00  1.00  1.00
 2020 176   372   372  26.8 -26.8 2.526   4.3  0.00  0.00  0.00  0.00 -0.06  0.00  0.00  0.00  0.00 63.27  1.00 143.8  2.27   0.0  1.00  1.00  1.00
 2020 177   373   373  27.2 -27.2 2.533   4.5  0.00  0.00  0.00  0.00 -0.06  0.00  0.00  0.00  0.00 55.26  1.00 140.1  2.53   0.0  1.00  1.00  1.00
 2020 178   374   374  26.5 -26.5 2.540   4.4  0.00  0.00  0.00  0.00 -0.06  0.00  0.00  0.00  0.00 61.15  1.00 136.8  2.24   0.0  1.00  1.00  1.00
 2020 179   375   375  27.4 -27.4 2.548   4.6  0.00  0.00  0.00  0.00 -0.06  0.00  0.00  0.00  0.00 57.17  1.00 133.3  2.33   0.0  1.00  1.00  1.00
 2020 180   376   376  26.6 -26.6 2.555   4.3  0.00  0.00  0.00  0.00 -0.06  0.00  0.00  0.00  0.00 59.73  1.00 139.9  2.34   0.0  1.00  1.00  1.00
 2020 181   377   377  26.0 -26.0 2.563   4.5  0.00  0.00  0.00  0.00 -0.06  0.00  0.00  0.00  0.00 71.02  1.00 139.7  1.97   0.0  1.00  1.00  1.00
 2020 182   378   378  27.2 -27.2 2.571   4.7  0.00  0.00  0.00  0.00 -0.06  0.00  0.00  0.00  0.00 65.90  1.00 141.3  2.14   0.0  1.00  1.00  1.00
 2020 183   379   379  28.1 -28.1 2.578   4.4  0.00  0.00  0.00  0.00 -0.06  0.00  0.00  0.00  0.00 57.68  1.00 137.9  2.39   0.0  1.00  1.00  1.00
 2020 184   380   380  28.5 -28.5 2.585   4.1  0.00  0.00  0.00  0.00 -0.06  0.00  0.00  0.00  0.00 56.15  1.00 134.5  2.40   0.0  1.00  1.00  1.00
 2020 185   381   381  26.7 -26.7 2.591   4.0  0.00  0.00  0.00  0.00 -0.06  0.00  0.00  0.00  0.00 70.79  1.00 152.3  2.15   0.0  1.00  1.00  1.00
 2020 186   382   382  25.2 -25.2 2.599   4.5  0.00  0.00  0.00  0.00 -0.06  0.00  0.00  0.00  0.00 73.71  1.00 153.5  2.08   0.0  1.00  1.00  1.00
 2020 187   383   383  26.8 -26.8 2.607   4.9  0.00  0.00  0.00  0.00 -0.06  0.00  0.00  0.00  0.00 71.11  1.00 152.4  2.14   0.0  1.00  1.00  1.00
 2020 188   384   384  27.3 -27.3 2.615   4.5  0.00  0.00  0.00  0.00 -0.06  0.00  0.00  0.00  0.00 63.51  1.00 149.2  2.35   0.0  1.00  1.00  1.00
 2020 189   385   385  26.6 -26.6 2.622   4.3  0.00  0.00  0.00  0.00 -0.06  0.00  0.00  0.00  0.00 65.37  1.00 149.1  2.28   0.0  1.00  1.00  1.00
 2020 190   386   386  27.0 -27.0 2.629   4.5  0.00  0.00  0.00  0.00 -0.06  0.00  0.00  0.00  0.00 62.89  1.00 145.6  2.32   0.0  1.00  1.00  1.00
 2020 191   387   387  27.0 -27.0 2.637   4.4  0.00  0.00  0.00  0.00 -0.06  0.00  0.00  0.00  0.00 64.25  1.00 142.3  2.22   0.0  1.00  1.00  1.00
 2020 192   388   388  24.8 -24.8 2.644   4.4  0.00  0.01  0.00  0.00 -0.06  0.00  0.00  0.00  0.00 87.28  1.00 188.3  2.16   0.0  1.00  1.00  1.00
 2020 193   389   389  25.5 -25.5 2.652   5.0  0.00  0.00  0.00  0.00 -0.06  0.00  0.00  0.00  0.00 85.14  1.00 179.0  2.10   0.0  1.00  1.00  1.00
 2020 194   390   390  26.5 -26.5 2.660   4.8  0.00  0.00  0.00  0.00 -0.06  0.00  0.00  0.00  0.00 74.12  1.00 162.4  2.19   0.0  1.00  1.00  1.00
 2020 195   391   391  26.8 -26.8 2.668   4.6  0.00  0.00  0.00  0.00 -0.06  0.00  0.00  0.00  0.00 72.95  1.00 156.4  2.14   0.0  1.00  1.00  1.00
 2020 196   392   392  25.5 -25.5 2.676   4.5  0.00  0.00  0.00  0.00 -0.06  0.00  0.00  0.00  0.00 78.20  1.00 162.0  2.07   0.0  1.00  1.00  1.00
 2020 197   393   393  25.8 -25.8 2.684   4.9  0.00  0.00  0.00  0.00 -0.06  0.00  0.00  0.00  0.00 75.45  1.00 157.0  2.08   0.0  1.00  1.00  1.00
 2020 198   394   394  26.5 -26.5 2.692   4.8  0.00  0.00  0.00  0.00 -0.06  0.00  0.00  0.00  0.00 79.76  1.00 158.8  1.99   0.0  1.00  1.00  1.00
 2020 199   395   395  26.0 -26.0 2.699   4.6  0.00  0.00  0.00  0.00 -0.06  0.00  0.00  0.00  0.00 78.39  1.00 157.5  2.01   0.0  1.00  1.00  1.00
 2020 200   396   396  26.5 -26.5 2.707   4.7  0.00  0.00  0.00  0.00 -0.06  0.00  0.00  0.00  0.00 73.56  1.00 167.4  2.28   0.0  1.00  1.00  1.00
 2020 201   397   397  26.3 -26.3 2.715   4.6  0.00  0.00  0.00  0.00 -0.06  0.00  0.00  0.00  0.00 85.17  1.00 169.7  1.99   0.0  1.00  1.00  1.00
 2020 202   398   398  25.8 -25.8 2.722   4.6  0.00  0.00  0.00  0.00 -0.06  0.00  0.00  0.00  0.00 81.02  1.00 166.8  2.06   0.0  1.00  1.00  1.00
 2020 203   399   399  26.5 -26.5 2.730   4.8  0.00  0.00  0.00  0.00 -0.06  0.00  0.00  0.00  0.00 77.23  1.00 158.7  2.05   0.0  1.00  1.00  1.00
 2020 204   400   400  27.0 -27.0 2.738   4.6  0.00  0.00  0.00  0.00 -0.06  0.00  0.00  0.00  0.00 70.62  1.00 158.6  2.25   0.0  1.00  1.00  1.00
 2020 205   401   401  25.2 -25.2 2.745   4.4  0.00  0.00  0.00  0.00 -0.06  0.00  0.00  0.00  0.00 67.60  1.00 155.3  2.30   0.0  1.00  1.00  1.00
 2020 206   402   402  26.2 -26.2 2.754   4.9  0.00  0.00  0.00  0.00 -0.06  0.00  0.00  0.00  0.00 70.74  1.00 152.4  2.15   0.0  1.00  1.00  1.00
 2020 207   403   403  25.8 -25.8 2.761   4.7  0.00  0.00  0.00  0.00 -0.06  0.00  0.00  0.00  0.00 77.97  1.00 149.7  1.92   0.0  1.00  1.00  1.00
 2020 208   404   404  26.8 -26.8 2.769   4.8  0.00  0.00  0.00  0.00 -0.06  0.00  0.00  0.00  0.00 69.01  1.00 146.6  2.12   0.0  1.00  1.00  1.00
 2020 209   405   405  25.0 -25.0 2.777   4.5  0.00  0.00  0.00  0.00 -0.06  0.00  0.00  0.00  0.00 75.18  1.00 144.1  1.92   0.0  1.00  1.00  1.00
