*Soil Organic Matter daily output file

*DSSAT Cropping System Model Ver. 4.8.0.010 -develop  AUG 03, 2021 18:13:11

*RUN   1        : IITA-TMS-IBA000070        CSYCA048 UYAB1901    1
 MODEL          : CSYCA048 - Cassava
 EXPERIMENT     : UYAB1901 CS UYT_GXE
 DATA PATH      : C:\DSSAT48\CASSAVA\
 TREATMENT  1   : IITA-TMS-IBA000070        CSYCA048
  
@YEAR DOY   DAS    OMAC    SCDD    SOCD    SC0D    SCTD   SOMCT    LCTD    ONAC    SNDD    SOND    SN0D    SNTD   SOMNT    LNTD
 2019 168     0       0   14671   93799       0   93799   93799     0.0    0.00     0.0     0.0    0.00     0.0     0.0    0.00
 2019 169     1       0   14670   93794       0   93794   93794     0.0    0.00     0.0     0.0    0.00     0.0     0.0    0.00
 2019 170     2       0   14670   93790       0   93790   93790     0.0    0.00     0.0     0.0    0.00     0.0     0.0    0.00
 2019 171     3       0   14669   93786       0   93786   93786     0.0    0.00     0.0     0.0    0.00     0.0     0.0    0.00
 2019 172     4       0   14669   93782       0   93782   93782     0.0    0.00     0.0     0.0    0.00     0.0     0.0    0.00
 2019 173     5       0   14668   93778       0   93778   93778     0.0    0.00     0.0     0.0    0.00     0.0     0.0    0.00
 2019 174     6       0   14668   93774       0   93774   93774     0.0    0.00     0.0     0.0    0.00     0.0     0.0    0.00
 2019 175     7       0   14667   93771       0   93771   93771     0.0    0.00     0.0     0.0    0.00     0.0     0.0    0.00
 2019 176     8       0   14667   93767       0   93767   93767     0.0    0.00     0.0     0.0    0.00     0.0     0.0    0.00
 2019 177     9       0   14666   93763       0   93763   93763     0.0    0.00     0.0     0.0    0.00     0.0     0.0    0.00
 2019 178    10       0   14666   93760       0   93760   93760     0.0    0.00     0.0     0.0    0.00     0.0     0.0    0.00
 2019 179    11       0   14665   93756       0   93756   93756     0.0    0.00     0.0     0.0    0.00     0.0     0.0    0.00
 2019 180    12       0   14665   93753       0   93753   93753     0.0    0.00     0.0     0.0    0.00     0.0     0.0    0.00
 2019 181    13       0   14665   93749       0   93749   93749     0.0    0.00     0.0     0.0    0.00     0.0     0.0    0.00
 2019 182    14       0   14664   93745       0   93745   93745     0.0    0.00     0.0     0.0    0.00     0.0     0.0    0.00
 2019 183    15       0   14664   93742       0   93742   93742     0.0    0.00     0.0     0.0    0.00     0.0     0.0    0.00
 2019 184    16       0   14663   93738       0   93738   93738     0.0    0.00     0.0     0.0    0.00     0.0     0.0    0.00
 2019 185    17       0   14663   93734       0   93734   93734     0.0    0.00     0.0     0.0    0.00     0.0     0.0    0.00
 2019 186    18       0   14662   93730       0   93730   93730     0.0    0.00     0.0     0.0    0.00     0.0     0.0    0.00
 2019 187    19       0   14662   93727       0   93727   93727     0.1    0.00     0.0     0.0    0.00     0.0     0.0    0.00
 2019 188    20       0   14661   93723       0   93723   93723     0.1    0.00     0.0     0.0    0.00     0.0     0.0    0.00
 2019 189    21       0   14661   93719       0   93719   93719     0.1    0.00     0.0     0.0    0.00     0.0     0.0    0.00
 2019 190    22       0   14660   93716       0   93716   93716     0.2    0.00     0.0     0.0    0.00     0.0     0.0    0.00
 2019 191    23       0   14660   93712       0   93712   93712     0.2    0.00     0.0     0.0    0.00     0.0     0.0    0.00
 2019 192    24       0   14659   93709       0   93709   93709     0.3    0.00     0.0     0.0    0.00     0.0     0.0    0.00
 2019 193    25       0   14659   93705       0   93705   93705     0.4    0.00     0.0     0.0    0.00     0.0     0.0    0.00
 2019 194    26       0   14658   93702       0   93702   93702     0.4    0.00     0.0     0.0    0.00     0.0     0.0    0.00
 2019 195    27       0   14658   93699       0   93699   93698     0.5    0.00     0.0     0.0    0.00     0.0     0.0    0.00
 2019 196    28       0   14658   93695       0   93695   93694     0.6    0.00     0.0     0.0    0.00     0.0     0.0    0.00
 2019 197    29       0   14657   93692       0   93692   93691     0.7    0.00     0.0     0.0    0.00     0.0     0.0    0.00
 2019 198    30       0   14657   93688       0   93688   93687     0.9    0.00     0.0     0.0    0.00     0.0     0.0    0.00
 2019 199    31       0   14656   93684       0   93684   93683     1.0    0.00     0.0     0.0    0.00     0.0     0.0    0.00
 2019 200    32       0   14656   93681       0   93681   93680     1.2    0.00     0.0     0.0    0.00     0.0     0.0    0.00
 2019 201    33       0   14655   93677       0   93677   93676     1.3    0.00     0.0     0.0    0.00     0.0     0.0    0.00
 2019 202    34       0   14655   93674       0   93674   93672     1.5    0.00     0.0     0.0    0.00     0.0     0.0    0.00
 2019 203    35       0   14654   93670       0   93670   93668     1.7    0.00     0.0     0.0    0.00     0.0     0.0    0.00
 2019 204    36       0   14654   93667       0   93667   93665     1.9    0.00     0.0     0.0    0.00     0.0     0.0    0.00
 2019 205    37       0   14653   93663       0   93663   93661     2.1    0.00     0.0     0.0    0.00     0.0     0.0    0.00
 2019 206    38       0   14653   93660       0   93660   93657     2.3    0.00     0.0     0.0    0.00     0.0     0.0    0.00
 2019 207    39       0   14652   93656       0   93656   93654     2.5    0.00     0.0     0.0    0.00     0.0     0.0    0.00
 2019 208    40       0   14652   93653       0   93653   93650     2.8    0.00     0.0     0.0    0.00     0.0     0.0    0.00
 2019 209    41       0   14651   93650       0   93650   93647     3.0    0.00     0.0     0.0    0.00     0.0     0.0    0.00
 2019 210    42       0   14651   93646       0   93646   93643     3.3    0.00     0.0     0.0    0.00     0.0     0.0    0.00
 2019 211    43       0   14650   93643       0   93643   93640     3.6    0.00     0.0     0.0    0.00     0.0     0.0    0.00
 2019 212    44       0   14650   93640       0   93640   93636     3.8    0.00     0.0     0.0    0.00     0.0     0.0    0.00
 2019 213    45       0   14650   93637       0   93637   93633     4.1    0.00     0.0     0.0    0.00     0.0     0.0    0.00
 2019 214    46       0   14649   93634       0   93634   93629     4.5    0.00     0.0     0.0    0.00     0.0     0.0    0.00
 2019 215    47       0   14649   93630       0   93630   93626     4.8    0.00     0.0     0.0    0.00     0.0     0.0    0.00
 2019 216    48       0   14648   93627       0   93627   93622     5.1    0.00     0.0     0.0    0.00     0.0     0.0    0.00
 2019 217    49       0   14648   93624       0   93624   93619     5.5    0.00     0.0     0.0    0.00     0.0     0.0    0.00
 2019 218    50       0   14647   93621       0   93621   93615     5.9    0.00     0.0     0.0    0.00     0.0     0.0    0.00
 2019 219    51       0   14647   93618       0   93618   93612     6.3    0.00     0.0     0.0    0.00     0.0     0.0    0.00
 2019 220    52       0   14646   93615       0   93615   93608     6.6    0.00     0.0     0.0    0.00     0.0     0.0    0.00
 2019 221    53       0   14646   93612       0   93612   93605     7.0    0.00     0.0     0.0    0.00     0.0     0.0    0.00
 2019 222    54       0   14646   93609       0   93609   93601     7.4    0.00     0.0     0.0    0.00     0.0     0.0    0.00
 2019 223    55       0   14645   93606       0   93606   93598     7.8    0.00     0.0     0.0    0.00     0.0     0.0    0.00
 2019 224    56       0   14645   93603       0   93603   93595     8.3    0.00     0.0     0.0    0.00     0.0     0.0    0.00
 2019 225    57       0   14644   93600       0   93600   93591     8.7    0.00     0.0     0.0    0.00     0.0     0.0    0.00
 2019 226    58       0   14644   93597       0   93597   93587     9.2    0.00     0.0     0.0    0.00     0.0     0.0    0.00
 2019 227    59       0   14643   93594       0   93594   93584     9.7    0.00     0.0     0.0    0.00     0.0     0.0    0.00
 2019 228    60       0   14643   93590       0   93590   93580    10.3    0.00     0.0     0.0    0.00     0.0     0.0    0.00
 2019 229    61       0   14642   93587       0   93587   93577    10.8    0.00     0.0     0.0    0.00     0.0     0.0    0.00
 2019 230    62       0   14642   93584       0   93584   93573    11.4    0.00     0.0     0.0    0.00     0.0     0.0    0.00
 2019 231    63       0   14641   93582       0   93582   93570    11.9    0.00     0.0     0.0    0.00     0.0     0.0    0.00
 2019 232    64       0   14641   93579       0   93579   93566    12.5    0.00     0.0     0.0    0.00     0.0     0.0    0.00
 2019 233    65       0   14640   93576       0   93576   93562    13.1    0.00     0.0     0.0    0.00     0.0     0.0    0.00
 2019 234    66       0   14640   93573       0   93573   93559    13.8    0.00     0.0     0.0    0.00     0.0     0.0    0.00
 2019 235    67       0   14640   93570       0   93570   93555    14.4    0.00     0.0     0.0    0.00     0.0     0.0    0.00
 2019 236    68       0   14639   93567       0   93567   93552    15.1    0.00     0.0     0.0    0.00     0.0     0.0    0.00
 2019 237    69       0   14639   93564       0   93564   93548    15.7    0.00     0.0     0.0    0.00     0.0     0.0    0.00
 2019 238    70       0   14638   93561       0   93561   93544    16.4    0.00     0.0     0.0    0.00     0.0     0.0    0.00
 2019 239    71       0   14638   93558       0   93558   93541    17.1    0.00     0.0     0.0    0.00     0.0     0.0    0.00
 2019 240    72       0   14637   93555       0   93555   93537    17.8    0.00     0.0     0.0    0.00     0.0     0.0    0.00
 2019 241    73       0   14637   93552       0   93552   93533    18.5    0.00     0.0     0.0    0.00     0.0     0.0    0.00
 2019 242    74       0   14636   93549       0   93549   93530    19.3    0.00     0.0     0.0    0.00     0.0     0.0    0.00
 2019 243    75       0   14636   93546       0   93546   93526    20.1    0.00     0.0     0.0    0.00     0.0     0.0    0.00
 2019 244    76       0   14635   93543       0   93543   93522    20.9    0.00     0.0     0.0    0.00     0.0     0.0    0.00
 2019 245    77       0   14635   93540       0   93540   93519    21.8    0.00     0.0     0.0    0.00     0.0     0.0    0.00
 2019 246    78       0   14634   93538       0   93538   93515    22.7    0.00     0.0     0.0    0.00     0.0     0.0    0.00
 2019 247    79       0   14634   93535       0   93535   93511    23.7    0.00     0.0     0.0    0.00     0.0     0.0    0.00
 2019 248    80       0   14633   93532       0   93532   93507    24.7    0.00     0.0     0.0    0.00     0.0     0.0    0.00
 2019 249    81       0   14633   93530       0   93530   93504    25.8    0.00     0.0     0.0    0.00     0.0     0.0    0.00
 2019 250    82       0   14632   93527       0   93527   93500    26.9    0.00     0.0     0.0    0.00     0.0     0.0    0.00
 2019 251    83       0   14632   93524       0   93524   93496    28.1    0.00     0.0     0.0    0.00     0.0     0.0    0.00
 2019 252    84       0   14631   93522       0   93522   93492    29.4    0.00     0.0     0.0    0.00     0.0     0.0    0.00
 2019 253    85       0   14631   93521       2   93519   93489    30.6    0.00     0.0     0.0    0.00     0.0     0.0    0.00
 2019 254    86       0   14630   93522       5   93517   93485    31.9    0.00     0.0     0.0    0.00     0.0     0.0    0.00
 2019 255    87       0   14630   93526      12   93514   93481    33.2    0.00     0.0     0.0    0.00     0.0     0.0    0.00
 2019 256    88       0   14630   93533      21   93512   93477    34.5    0.00     0.0     0.0    0.00     0.0     0.0    0.00
 2019 257    89       0   14629   93544      34   93509   93474    35.8    0.00     0.0     0.0    0.00     0.0     0.0    0.00
 2019 258    90       0   14629   93553      46   93507   93470    37.3    0.00     0.0     0.0    0.00     0.0     0.0    0.00
 2019 259    91       0   14628   93562      58   93505   93466    38.7    0.00     0.0     0.0    0.00     0.0     0.0    0.00
 2019 260    92       0   14628   93570      68   93503   93462    40.3    0.00     0.0     0.0    0.00     0.0     0.0    0.00
 2019 261    93       0   14627   93579      79   93500   93458    41.8    0.00     0.0     0.0    0.00     0.0     0.0    0.00
 2019 262    94       0   14627   93587      89   93498   93455    43.3    0.00     0.0     0.0    0.00     0.0     0.0    0.00
 2019 263    95       0   14626   93594      98   93496   93451    44.9    0.00     0.0     0.0    0.00     0.0     0.0    0.00
 2019 264    96       0   14626   93601     108   93494   93447    46.5    0.00     0.0     0.0    0.00     0.0     0.0    0.00
 2019 265    97       0   14625   93608     117   93491   93443    48.2    0.00     0.0     0.0    0.00     0.0     0.0    0.00
 2019 266    98       0   14625   93614     124   93489   93439    49.9    0.00     0.0     0.0    0.00     0.0     0.0    0.00
 2019 267    99       0   14624   93621     134   93487   93436    51.7    0.00     0.0     0.0    0.00     0.0     0.0    0.00
 2019 268   100       0   14624   93627     142   93485   93432    53.5    0.00     0.0     0.0    0.00     0.0     0.0    0.00
 2019 269   101       0   14623   93633     150   93483   93428    55.3    0.00     0.0     0.0    0.00     0.0     0.0    0.00
 2019 270   102       0   14623   93638     157   93481   93424    57.2    0.00     0.0     0.0    0.00     0.0     0.0    0.00
 2019 271   103       0   14622   93642     164   93479   93420    59.0    0.00     0.0     0.0    0.00     0.0     0.0    0.00
 2019 272   104       0   14622   93648     172   93477   93416    60.9    0.00     0.0     0.0    0.00     0.0     0.0    0.00
 2019 273   105       0   14621   93654     179   93475   93412    62.9    0.00     0.0     0.0    0.00     0.0     0.0    0.00
 2019 274   106       0   14621   93659     187   93473   93408    64.8    0.00     0.0     0.0    0.00     0.0     0.0    0.00
 2019 275   107       0   14620   93670     199   93471   93404    66.8    0.00     0.0     0.0    0.00     0.0     0.0    0.00
 2019 276   108       0   14620   93678     208   93469   93400    68.9    0.00     0.0     0.0    0.00     0.0     0.0    0.00
 2019 277   109       0   14619   93688     220   93467   93396    71.0    0.00     0.0     0.0    0.00     0.0     0.0    0.00
 2019 278   110       0   14619   93701     235   93466   93393    73.2    0.00     0.0     0.0    0.00     0.0     0.0    0.00
 2019 279   111       0   14618   93717     253   93464   93389    75.4    0.00     0.0     0.0    0.00     0.0     0.0    0.00
 2019 280   112       0   14618   93734     271   93463   93385    77.6    0.00     0.0     0.0    0.00     0.0     0.0    0.00
 2019 281   113       0   14617   93753     292   93461   93381    79.9    0.00     0.0     0.0    0.00     0.0     0.0    0.00
 2019 282   114       0   14617   93775     315   93460   93378    82.2    0.00     0.0     0.0    0.00     0.0     0.0    0.00
 2019 283   115       0   14616   93798     339   93458   93374    84.6    0.00     0.0     0.0    0.00     0.0     0.0    0.00
 2019 284   116       0   14616   93819     362   93457   93370    87.1    0.00     0.0     0.0    0.00     0.0     0.0    0.00
 2019 285   117       0   14615   93839     383   93456   93366    89.7    0.00     0.0     0.0    0.00     0.0     0.0    0.00
 2019 286   118       0   14615   93860     405   93455   93362    92.4    0.00     0.0     0.0    0.00     0.0     0.0    0.00
 2019 287   119       0   14614   93879     425   93454   93359    95.2    0.00     0.0     0.0    0.00     0.0     0.0    0.00
 2019 288   120       0   14614   93898     445   93453   93355    98.2    0.00     0.0     0.0    0.00     0.0     0.0    0.00
 2019 289   121       0   14613   93918     466   93452   93351   101.2    0.00     0.0     0.0    0.00     0.0     0.0    0.00
 2019 290   122       0   14613   93933     482   93451   93347   104.2    0.00     0.0     0.0    0.00     0.0     0.0    0.00
 2019 291   123       0   14612   93950     500   93450   93343   107.3    0.00     0.0     0.0    0.00     0.0     0.0    0.00
 2019 292   124       0   14612   93969     519   93449   93339   110.4    0.00     0.0     0.0    0.00     0.0     0.0    0.00
 2019 293   125       0   14611   93986     537   93449   93335   113.5    0.00     0.0     0.0    0.00     0.0     0.0    0.00
 2019 294   126       0   14611   94006     558   93448   93331   116.6    0.00     0.0     0.0    0.00     0.0     0.0    0.00
 2019 295   127       0   14610   94022     575   93447   93327   119.9    0.00     0.0     0.0    0.00     0.0     0.0    0.00
 2019 296   128       0   14610   94041     594   93447   93324   123.2    0.00     0.0     0.0    0.00     0.0     0.0    0.00
 2019 297   129       0   14609   94054     608   93446   93320   126.6    0.00     0.0     0.0    0.00     0.0     0.0    0.00
 2019 298   130       0   14609   94071     625   93446   93316   130.1    0.00     0.0     0.0    0.00     0.0     0.0    0.00
 2019 299   131       0   14608   94084     639   93446   93312   133.6    0.00     0.0     0.0    0.00     0.0     0.0    0.00
 2019 300   132       0   14608   94103     658   93445   93308   137.2    0.00     0.0     0.0    0.00     0.0     0.0    0.00
 2019 301   133       0   14607   94115     670   93445   93304   140.7    0.00     0.0     0.0    0.00     0.0     0.0    0.00
 2019 302   134       0   14607   94133     688   93445   93300   144.2    0.00     0.0     0.0    0.00     0.0     0.0    0.00
 2019 303   135       0   14606   94147     703   93444   93297   147.9    0.00     0.0     0.0    0.00     0.0     0.0    0.00
 2019 304   136       0   14606   94160     716   93444   93293   151.6    0.00     0.0     0.0    0.00     0.0     0.0    0.00
 2019 305   137       0   14605   94173     729   93444   93289   155.4    0.00     0.0     0.0    0.00     0.0     0.0    0.00
 2019 306   138       0   14605   94190     746   93444   93285   159.4    0.00     0.0     0.0    0.00     0.0     0.0    0.00
 2019 307   139       0   14604   94208     764   93444   93281   163.5    0.00     0.0     0.0    0.00     0.0     0.0    0.00
 2019 308   140       0   14604   94233     789   93444   93277   167.7    0.00     0.0     0.0    0.00     0.0     0.0    0.00
 2019 309   141       0   14603   94261     817   93445   93273   172.0    0.00     0.0     0.0    0.00     0.0     0.0    0.00
 2019 310   142       0   14603   94295     850   93445   93269   176.4    0.00     0.0     0.0    0.00     0.0     0.0    0.00
 2019 311   143       0   14602   94333     888   93445   93264   181.0    0.00     0.0     0.0    0.00     0.0     0.0    0.00
 2019 312   144       0   14602   94374     928   93446   93260   185.8    0.00     0.0     0.0    0.00     0.0     0.0    0.00
 2019 313   145       0   14601   94419     972   93447   93256   190.7    0.00     0.0     0.0    0.00     0.0     0.0    0.00
 2019 314   146       0   14601   94476    1029   93448   93252   195.7    0.00     0.0     0.0    0.00     0.0     0.0    0.00
 2019 315   147       0   14600   94520    1071   93449   93248   200.8    0.00     0.0     0.0    0.00     0.0     0.0    0.00
 2019 316   148       0   14599   94572    1122   93450   93244   206.1    0.00     0.0     0.0    0.00     0.0     0.0    0.00
 2019 317   149       0   14599   94612    1161   93451   93240   211.5    0.00     0.0     0.0    0.00     0.0     0.0    0.00
 2019 318   150       0   14598   94656    1203   93453   93236   217.0    0.00     0.0     0.0    0.00     0.0     0.0    0.00
 2019 319   151       0   14598   94690    1236   93454   93232   222.6    0.00     0.0     0.0    0.00     0.0     0.0    0.00
 2019 320   152       0   14597   94731    1275   93456   93228   228.4    0.00     0.0     0.0    0.00     0.0     0.0    0.00
 2019 321   153       0   14597   94780    1321   93458   93224   234.2    0.00     0.0     0.0    0.00     0.0     0.0    0.00
 2019 322   154       0   14596   94821    1360   93461   93221   240.2    0.00     0.0     0.0    0.00     0.0     0.0    0.00
 2019 323   155       0   14596   94872    1409   93463   93217   246.3    0.00     0.0     0.0    0.00     0.0     0.0    0.00
 2019 324   156       0   14595   94911    1445   93466   93213   252.5    0.00     0.0     0.0    0.00     0.0     0.0    0.00
 2019 325   157       0   14595   94948    1480   93468   93210   258.8    0.00     0.0     0.0    0.00     0.0     0.0    0.00
 2019 326   158       0   14594   94980    1509   93471   93206   265.3    0.00     0.0     0.0    0.00     0.0     0.0    0.00
 2019 327   159       0   14594   95015    1541   93474   93202   271.8    0.00     0.0     0.0    0.00     0.0     0.0    0.00
 2019 328   160       0   14593   95048    1571   93476   93198   278.4    0.00     0.0     0.0    0.00     0.0     0.0    0.00
 2019 329   161       0   14593   95084    1605   93479   93194   285.1    0.00     0.0     0.0    0.00     0.0     0.0    0.00
 2019 330   162       0   14592   95116    1634   93482   93190   291.9    0.00     0.0     0.0    0.00     0.0     0.0    0.00
 2019 331   163       0   14592   95152    1667   93485   93186   298.8    0.00     0.0     0.0    0.00     0.0     0.0    0.00
 2019 332   164       0   14591   95184    1696   93488   93182   305.7    0.00     0.0     0.0    0.00     0.0     0.0    0.00
 2019 333   165       0   14591   95218    1726   93492   93179   312.8    0.00     0.0     0.0    0.00     0.0     0.0    0.00
 2019 334   166       0   14590   95250    1754   93495   93175   319.9    0.00     0.0     0.0    0.00     0.0     0.0    0.00
 2019 335   167       0   14590   95270    1771   93499   93172   327.1    0.00     0.0     0.0    0.00     0.0     0.0    0.00
 2019 336   168       0   14589   95299    1797   93503   93168   334.3    0.00     0.0     0.0    0.00     0.0     0.0    0.00
 2019 337   169       0   14589   95316    1810   93506   93165   341.7    0.00     0.0     0.0    0.00     0.0     0.0    0.00
 2019 338   170       0   14588   95342    1832   93510   93161   349.1    0.00     0.0     0.0    0.00     0.0     0.0    0.00
 2019 339   171       0   14588   95369    1855   93514   93157   356.6    0.00     0.0     0.0    0.00     0.0     0.0    0.00
 2019 340   172       0   14587   95401    1883   93518   93154   364.2    0.00     0.0     0.0    0.00     0.0     0.0    0.00
 2019 341   173       0   14586   95430    1908   93522   93150   371.8    0.00     0.0     0.0    0.00     0.0     0.0    0.00
 2019 342   174       0   14586   95451    1925   93526   93147   379.5    0.00     0.0     0.0    0.00     0.0     0.0    0.00
 2019 343   175       0   14585   95480    1950   93531   93143   387.2    0.00     0.0     0.0    0.00     0.0     0.0    0.00
 2019 344   176       0   14585   95501    1966   93535   93140   395.1    0.00     0.0     0.0    0.00     0.0     0.0    0.00
 2019 345   177       0   14584   95531    1991   93540   93137   402.9    0.00     0.0     0.0    0.00     0.0     0.0    0.00
 2019 346   178       0   14584   95557    2013   93544   93133   410.9    0.00     0.0     0.0    0.00     0.0     0.0    0.00
 2019 347   179       0   14583   95586    2037   93549   93130   418.9    0.00     0.0     0.0    0.00     0.0     0.0    0.00
 2019 348   180       0   14583   95615    2062   93553   93126   426.9    0.00     0.0     0.0    0.00     0.0     0.0    0.00
 2019 349   181       0   14582   95646    2088   93558   93123   435.0    0.00     0.0     0.0    0.00     0.0     0.0    0.00
 2019 350   182       0   14582   95684    2121   93563   93120   443.1    0.00     0.0     0.0    0.00     0.0     0.0    0.00
 2019 351   183       0   14581   95717    2148   93568   93117   451.3    0.00     0.0     0.0    0.00     0.0     0.0    0.00
 2019 352   184       0   14581   95756    2183   93573   93114   459.5    0.00     0.0     0.0    0.00     0.0     0.0    0.00
 2019 353   185       0   14580   95786    2208   93578   93110   467.8    0.00     0.0     0.0    0.00     0.0     0.0    0.00
 2019 354   186       0   14580   95813    2230   93583   93107   476.1    0.00     0.0     0.0    0.00     0.0     0.0    0.00
 2019 355   187       0   14579   95839    2251   93588   93104   484.4    0.00     0.0     0.0    0.00     0.0     0.0    0.00
 2019 356   188       0   14578   95873    2280   93593   93100   492.7    0.00     0.0     0.0    0.00     0.0     0.0    0.00
 2019 357   189       0   14578   95904    2306   93598   93097   501.0    0.00     0.0     0.0    0.00     0.0     0.0    0.00
 2019 358   190       0   14577   95933    2329   93604   93094   509.4    0.00     0.0     0.0    0.00     0.0     0.0    0.00
 2019 359   191       0   14577   95957    2348   93609   93091   517.8    0.00     0.0     0.0    0.00     0.0     0.0    0.00
 2019 360   192       0   14576   95988    2374   93614   93088   526.1    0.00     0.0     0.0    0.00     0.0     0.0    0.00
 2019 361   193       0   14576   96011    2392   93619   93085   534.5    0.00     0.0     0.0    0.00     0.0     0.0    0.00
 2019 362   194       0   14575   96035    2411   93624   93081   542.9    0.00     0.0     0.0    0.00     0.0     0.0    0.00
 2019 363   195       0   14575   96058    2429   93629   93078   551.3    0.00     0.0     0.0    0.00     0.0     0.0    0.00
 2019 364   196       0   14574   96073    2438   93635   93075   559.6    0.00     0.0     0.0    0.00     0.0     0.0    0.00
 2019 365   197       0   14574   96079    2438   93640   93072   567.9    0.00     0.0     0.0    0.00     0.0     0.0    0.00
 2020 001   198       0   14573   96100    2455   93646   93069   576.2    0.00     0.0     0.0    0.00     0.0     0.0    0.00
 2020 002   199       0   14573   96120    2469   93651   93066   584.5    0.00     0.0     0.0    0.00     0.0     0.0    0.00
 2020 003   200       0   14572   96139    2483   93656   93063   592.8    0.00     0.0     0.0    0.00     0.0     0.0    0.00
 2020 004   201       0   14572   96156    2495   93661   93060   601.0    0.00     0.0     0.0    0.00     0.0     0.0    0.00
 2020 005   202       0   14571   96174    2508   93666   93057   609.2    0.00     0.0     0.0    0.00     0.0     0.0    0.00
 2020 006   203       0   14571   96180    2508   93672   93054   617.5    0.00     0.0     0.0    0.00     0.0     0.0    0.00
 2020 007   204       0   14570   96185    2508   93677   93051   625.7    0.00     0.0     0.0    0.00     0.0     0.0    0.00
 2020 008   205       0   14570   96190    2508   93682   93049   633.8    0.00     0.0     0.0    0.00     0.0     0.0    0.00
 2020 009   206       0   14569   96210    2523   93687   93045   641.9    0.00     0.0     0.0    0.00     0.0     0.0    0.00
 2020 010   207       0   14568   96230    2538   93692   93042   650.0    0.00     0.0     0.0    0.00     0.0     0.0    0.00
 2020 011   208       0   14568   96250    2553   93697   93039   658.1    0.00     0.0     0.0    0.00     0.0     0.0    0.00
 2020 012   209       0   14567   96270    2568   93702   93036   666.2    0.00     0.0     0.0    0.00     0.0     0.0    0.00
 2020 013   210       0   14567   96277    2570   93708   93033   674.2    0.00     0.0     0.0    0.00     0.0     0.0    0.00
 2020 014   211       0   14566   96282    2570   93713   93031   682.2    0.00     0.0     0.0    0.00     0.0     0.0    0.00
 2020 015   212       0   14566   96287    2570   93718   93027   690.2    0.00     0.0     0.0    0.00     0.0     0.0    0.00
 2020 016   213       0   14565   96292    2570   93722   93024   698.1    0.00     0.0     0.0    0.00     0.0     0.0    0.00
 2020 017   214       0   14565   96296    2570   93727   93021   705.9    0.00     0.0     0.0    0.00     0.0     0.0    0.00
 2020 018   215       0   14564   96313    2581   93731   93018   713.7    0.00     0.0     0.0    0.00     0.0     0.0    0.00
 2020 019   216       0   14564   96330    2594   93736   93015   721.5    0.00     0.0     0.0    0.00     0.0     0.0    0.00
 2020 020   217       0   14563   96346    2605   93741   93012   729.2    0.00     0.0     0.0    0.00     0.0     0.0    0.00
 2020 021   218       0   14563   96363    2617   93746   93009   737.0    0.00     0.0     0.0    0.00     0.0     0.0    0.00
 2020 022   219       0   14562   96374    2623   93751   93006   744.7    0.00     0.0     0.0    0.00     0.0     0.0    0.00
 2020 023   220       0   14562   96378    2623   93756   93003   752.4    0.00     0.0     0.0    0.00     0.0     0.0    0.00
 2020 024   221       0   14561   96383    2623   93760   93000   760.0    0.00     0.0     0.0    0.00     0.0     0.0    0.00
 2020 025   222       0   14560   96387    2623   93765   92997   767.6    0.00     0.0     0.0    0.00     0.0     0.0    0.00
 2020 026   223       0   14560   96392    2623   93769   92994   775.2    0.00     0.0     0.0    0.00     0.0     0.0    0.00
 2020 027   224       0   14559   96406    2632   93774   92991   782.7    0.00     0.0     0.0    0.00     0.0     0.0    0.00
 2020 028   225       0   14559   96421    2642   93779   92989   790.1    0.00     0.0     0.0    0.00     0.0     0.0    0.00
 2020 029   226       0   14558   96435    2652   93783   92986   797.5    0.00     0.0     0.0    0.00     0.0     0.0    0.00
 2020 030   227       0   14558   96450    2663   93787   92982   804.9    0.00     0.0     0.0    0.00     0.0     0.0    0.00
 2020 031   228       0   14557   96458    2667   93792   92979   812.3    0.00     0.0     0.0    0.00     0.0     0.0    0.00
 2020 032   229       0   14557   96463    2667   93796   92976   819.6    0.00     0.0     0.0    0.00     0.0     0.0    0.00
 2020 033   230       0   14556   96467    2667   93800   92973   826.8    0.00     0.0     0.0    0.00     0.0     0.0    0.00
 2020 034   231       0   14556   96472    2667   93805   92971   834.0    0.00     0.0     0.0    0.00     0.0     0.0    0.00
 2020 035   232       0   14555   96487    2678   93809   92968   841.2    0.00     0.0     0.0    0.00     0.0     0.0    0.00
 2020 036   233       0   14555   96501    2688   93813   92965   848.3    0.00     0.0     0.0    0.00     0.0     0.0    0.00
 2020 037   234       0   14554   96516    2699   93817   92962   855.5    0.00     0.0     0.0    0.00     0.0     0.0    0.00
 2020 038   235       0   14553   96531    2710   93821   92959   862.6    0.00     0.0     0.0    0.00     0.0     0.0    0.00
 2020 039   236       0   14553   96538    2712   93826   92956   869.7    0.00     0.0     0.0    0.00     0.0     0.0    0.00
 2020 040   237       0   14552   96542    2712   93830   92953   876.7    0.00     0.0     0.0    0.00     0.0     0.0    0.00
 2020 041   238       0   14552   96557    2722   93834   92951   883.7    0.00     0.0     0.0    0.00     0.0     0.0    0.00
 2020 042   239       0   14551   96571    2733   93838   92948   890.7    0.00     0.0     0.0    0.00     0.0     0.0    0.00
 2020 043   240       0   14551   96585    2742   93842   92945   897.6    0.00     0.0     0.0    0.00     0.0     0.0    0.00
 2020 044   241       0   14550   96596    2750   93846   92942   904.5    0.00     0.0     0.0    0.00     0.0     0.0    0.00
 2020 045   242       0   14550   96600    2750   93850   92939   911.4    0.00     0.0     0.0    0.00     0.0     0.0    0.00
 2020 046   243       0   14549   96604    2750   93854   92936   918.3    0.00     0.0     0.0    0.00     0.0     0.0    0.00
 2020 047   244       0   14549   96617    2759   93858   92933   925.1    0.00     0.0     0.0    0.00     0.0     0.0    0.00
 2020 048   245       0   14548   96631    2769   93862   92930   931.9    0.00     0.0     0.0    0.00     0.0     0.0    0.00
 2020 049   246       0   14548   96643    2778   93866   92927   938.6    0.00     0.0     0.0    0.00     0.0     0.0    0.00
 2020 050   247       0   14547   96654    2784   93869   92924   945.3    0.00     0.0     0.0    0.00     0.0     0.0    0.00
 2020 051   248       0   14546   96657    2784   93873   92921   952.0    0.00     0.0     0.0    0.00     0.0     0.0    0.00
 2020 052   249       0   14546   96661    2784   93877   92918   958.6    0.00     0.0     0.0    0.00     0.0     0.0    0.00
 2020 053   250       0   14545   96665    2784   93881   92916   965.2    0.00     0.0     0.0    0.00     0.0     0.0    0.00
 2020 054   251       0   14545   96669    2784   93884   92913   971.8    0.00     0.0     0.0    0.00     0.0     0.0    0.00
 2020 055   252       0   14544   96672    2784   93888   92909   978.3    0.00     0.0     0.0    0.00     0.0     0.0    0.00
 2020 056   253       0   14544   96675    2784   93891   92906   984.7    0.00     0.0     0.0    0.00     0.0     0.0    0.00
 2020 057   254       0   14543   96688    2794   93894   92903   991.1    0.00     0.0     0.0    0.00     0.0     0.0    0.00
 2020 058   255       0   14543   96701    2804   93898   92900   997.4    0.00     0.0     0.0    0.00     0.0     0.0    0.00
 2020 059   256       0   14542   96715    2814   93902   92898  1003.8    0.00     0.0     0.0    0.00     0.0     0.0    0.00
 2020 060   257       0   14542   96724    2819   93905   92895  1010.0    0.00     0.0     0.0    0.00     0.0     0.0    0.00
 2020 061   258       0   14541   96727    2819   93908   92892  1016.3    0.00     0.0     0.0    0.00     0.0     0.0    0.00
 2020 062   259       0   14540   96730    2819   93911   92889  1022.5    0.00     0.0     0.0    0.00     0.0     0.0    0.00
 2020 063   260       0   14540   96736    2822   93914   92886  1028.7    0.00     0.0     0.0    0.00     0.0     0.0    0.00
 2020 064   261       0   14539   96747    2830   93918   92883  1034.8    0.00     0.0     0.0    0.00     0.0     0.0    0.00
 2020 065   262       0   14539   96759    2838   93921   92880  1040.9    0.00     0.0     0.0    0.00     0.0     0.0    0.00
 2020 066   263       0   14538   96777    2853   93924   92877  1047.0    0.00     0.0     0.0    0.00     0.0     0.0    0.00
 2020 067   264       0   14538   96786    2859   93927   92874  1052.9    0.00     0.0     0.0    0.00     0.0     0.0    0.00
 2020 068   265       0   14537   96799    2869   93930   92871  1058.9    0.00     0.0     0.0    0.00     0.0     0.0    0.00
 2020 069   266       0   14536   96810    2878   93933   92868  1064.8    0.00     0.0     0.0    0.00     0.0     0.0    0.00
 2020 070   267       0   14536   96820    2884   93936   92865  1070.7    0.00     0.0     0.0    0.00     0.0     0.0    0.00
 2020 071   268       0   14536   96829    2890   93939   92863  1076.6    0.00     0.0     0.0    0.00     0.0     0.0    0.00
 2020 072   269       0   14535   96835    2892   93942   92860  1082.6    0.00     0.0     0.0    0.00     0.0     0.0    0.00
 2020 073   270       0   14534   96845    2900   93945   92857  1088.3    0.00     0.0     0.0    0.00     0.0     0.0    0.00
 2020 074   271       0   14534   96853    2905   93948   92854  1094.2    0.00     0.0     0.0    0.00     0.0     0.0    0.00
 2020 075   272       0   14533   96862    2911   93951   92851  1100.1    0.00     0.0     0.0    0.00     0.0     0.0    0.00
 2020 076   273       0   14533   96870    2916   93954   92848  1106.0    0.00     0.0     0.0    0.00     0.0     0.0    0.00
 2020 077   274       0   14532   96878    2921   93957   92845  1111.9    0.00     0.0     0.0    0.00     0.0     0.0    0.00
 2020 078   275       0   14532   96889    2929   93960   92843  1117.6    0.00     0.0     0.0    0.00     0.0     0.0    0.00
 2020 079   276       0   14531   96900    2937   93963   92839  1123.4    0.00     0.0     0.0    0.00     0.0     0.0    0.00
 2020 080   277       0   14530   96910    2945   93966   92836  1129.2    0.00     0.0     0.0    0.00     0.0     0.0    0.00
 2020 081   278       0   14530   96919    2950   93968   92834  1134.9    0.00     0.0     0.0    0.00     0.0     0.0    0.00
 2020 082   279       0   14529   96930    2959   93972   92831  1140.6    0.00     0.0     0.0    0.00     0.0     0.0    0.00
 2020 083   280       0   14529   96944    2970   93974   92828  1146.3    0.00     0.0     0.0    0.00     0.0     0.0    0.00
 2020 084   281       0   14528   96953    2976   93977   92825  1152.0    0.00     0.0     0.0    0.00     0.0     0.0    0.00
 2020 085   282       0   14527   96961    2982   93979   92822  1157.7    0.00     0.0     0.0    0.00     0.0     0.0    0.00
 2020 086   283       0   14527   96970    2988   93982   92819  1163.4    0.00     0.0     0.0    0.00     0.0     0.0    0.00
 2020 087   284       0   14526   96978    2993   93985   92816  1169.1    0.00     0.0     0.0    0.00     0.0     0.0    0.00
 2020 088   285       0   14526   96990    3003   93988   92813  1174.7    0.00     0.0     0.0    0.00     0.0     0.0    0.00
 2020 089   286       0   14525   97003    3012   93991   92811  1180.4    0.00     0.0     0.0    0.00     0.0     0.0    0.00
 2020 090   287       0   14525   97014    3020   93994   92808  1186.1    0.00     0.0     0.0    0.00     0.0     0.0    0.00
 2020 091   288       0   14524   97025    3029   93996   92805  1191.8    0.00     0.0     0.0    0.00     0.0     0.0    0.00
 2020 092   289       0   14524   97033    3035   93999   92801  1197.4    0.00     0.0     0.0    0.00     0.0     0.0    0.00
 2020 093   290       0   14523   97041    3040   94001   92798  1203.1    0.00     0.0     0.0    0.00     0.0     0.0    0.00
 2020 094   291       0   14522   97052    3049   94004   92795  1208.7    0.00     0.0     0.0    0.00     0.0     0.0    0.00
 2020 095   292       0   14522   97061    3055   94006   92792  1214.4    0.00     0.0     0.0    0.00     0.0     0.0    0.00
 2020 096   293       0   14521   97069    3061   94009   92789  1220.1    0.00     0.0     0.0    0.00     0.0     0.0    0.00
 2020 097   294       0   14521   97083    3071   94012   92786  1225.8    0.00     0.0     0.0    0.00     0.0     0.0    0.00
 2020 098   295       0   14520   97096    3081   94014   92783  1231.4    0.00     0.0     0.0    0.00     0.0     0.0    0.00
 2020 099   296       0   14520   97111    3094   94017   92780  1237.1    0.00     0.0     0.0    0.00     0.0     0.0    0.00
 2020 100   297       0   14519   97126    3107   94019   92777  1242.8    0.00     0.0     0.0    0.00     0.0     0.0    0.00
 2020 101   298       0   14518   97142    3120   94022   92774  1248.6    0.00     0.0     0.0    0.00     0.0     0.0    0.00
 2020 102   299       0   14518   97161    3136   94025   92770  1254.3    0.00     0.0     0.0    0.00     0.0     0.0    0.00
 2020 103   300       0   14517   97179    3151   94027   92767  1260.1    0.00     0.0     0.0    0.00     0.0     0.0    0.00
 2020 104   301       0   14517   97200    3169   94030   92764  1265.9    0.00     0.0     0.0    0.00     0.0     0.0    0.00
 2020 105   302       0   14516   97221    3188   94033   92761  1271.7    0.00     0.0     0.0    0.00     0.0     0.0    0.00
 2020 106   303       0   14516   97249    3214   94036   92758  1277.6    0.00     0.0     0.0    0.00     0.0     0.0    0.00
 2020 107   304       0   14515   97273    3234   94039   92755  1283.4    0.00     0.0     0.0    0.00     0.0     0.0    0.00
 2020 108   305       0   14515   97292    3250   94042   92753  1289.3    0.00     0.0     0.0    0.00     0.0     0.0    0.00
 2020 109   306       0   14514   97312    3268   94045   92750  1295.1    0.00     0.0     0.0    0.00     0.0     0.0    0.00
 2020 110   307       0   14513   97326    3278   94048   92747  1301.0    0.00     0.0     0.0    0.00     0.0     0.0    0.00
 2020 111   308       0   14513   97350    3299   94050   92744  1306.8    0.00     0.0     0.0    0.00     0.0     0.0    0.00
 2020 112   309       0   14512   97368    3315   94053   92741  1312.7    0.00     0.0     0.0    0.00     0.0     0.0    0.00
 2020 113   310       0   14512   97382    3325   94056   92738  1318.6    0.00     0.0     0.0    0.00     0.0     0.0    0.00
 2020 114   311       0   14511   97403    3343   94060   92735  1324.5    0.00     0.0     0.0    0.00     0.0     0.0    0.00
 2020 115   312       0   14511   97418    3356   94063   92732  1330.5    0.00     0.0     0.0    0.00     0.0     0.0    0.00
 2020 116   313       0   14510   97433    3367   94066   92729  1336.4    0.00     0.0     0.0    0.00     0.0     0.0    0.00
 2020 117   314       0   14510   97453    3385   94069   92726  1342.3    0.00     0.0     0.0    0.00     0.0     0.0    0.00
 2020 118   315       0   14509   97468    3397   94072   92723  1348.3    0.00     0.0     0.0    0.00     0.0     0.0    0.00
 2020 119   316       0   14508   97483    3409   94075   92721  1354.3    0.00     0.0     0.0    0.00     0.0     0.0    0.00
 2020 120   317       0   14508   97509    3431   94078   92718  1360.3    0.00     0.0     0.0    0.00     0.0     0.0    0.00
 2020 121   318       0   14507   97526    3445   94081   92715  1366.3    0.00     0.0     0.0    0.00     0.0     0.0    0.00
 2020 122   319       0   14507   97564    3479   94085   92712  1372.4    0.00     0.0     0.0    0.00     0.0     0.0    0.00
 2020 123   320       0   14506   97593    3505   94088   92709  1378.5    0.00     0.0     0.0    0.00     0.0     0.0    0.00
 2020 124   321       0   14505   97615    3524   94091   92707  1384.6    0.00     0.0     0.0    0.00     0.0     0.0    0.00
 2020 125   322       0   14505   97630    3536   94094   92704  1390.8    0.00     0.0     0.0    0.00     0.0     0.0    0.00
 2020 126   323       0   14504   97647    3549   94098   92701  1397.0    0.00     0.0     0.0    0.00     0.0     0.0    0.00
 2020 127   324       0   14504   97665    3564   94101   92698  1403.2    0.00     0.0     0.0    0.00     0.0     0.0    0.00
 2020 128   325       0   14503   97684    3579   94105   92696  1409.5    0.00     0.0     0.0    0.00     0.0     0.0    0.00
 2020 129   326       0   14503   97712    3603   94109   92693  1415.7    0.00     0.0     0.0    0.00     0.0     0.0    0.00
 2020 130   327       0   14502   97731    3618   94113   92691  1422.0    0.00     0.0     0.0    0.00     0.0     0.0    0.00
 2020 131   328       0   14502   97749    3633   94116   92688  1428.3    0.00     0.0     0.0    0.00     0.0     0.0    0.00
 2020 132   329       0   14501   97773    3653   94120   92685  1434.6    0.00     0.0     0.0    0.00     0.0     0.0    0.00
 2020 133   330       0   14501   97788    3665   94123   92682  1441.0    0.00     0.0     0.0    0.00     0.0     0.0    0.00
 2020 134   331       0   14500   97804    3677   94126   92679  1447.4    0.00     0.0     0.0    0.00     0.0     0.0    0.00
 2020 135   332       0   14499   97832    3702   94130   92676  1453.8    0.00     0.0     0.0    0.00     0.0     0.0    0.00
 2020 136   333       0   14499   97851    3717   94134   92673  1460.3    0.00     0.0     0.0    0.00     0.0     0.0    0.00
 2020 137   334       0   14498   97870    3733   94137   92670  1466.8    0.00     0.0     0.0    0.00     0.0     0.0    0.00
 2020 138   335       0   14498   97906    3765   94141   92668  1473.3    0.00     0.0     0.0    0.00     0.0     0.0    0.00
 2020 139   336       0   14497   97931    3787   94145   92665  1479.9    0.00     0.0     0.0    0.00     0.0     0.0    0.00
 2020 140   337       0   14497   97957    3809   94149   92662  1486.5    0.00     0.0     0.0    0.00     0.0     0.0    0.00
 2020 141   338       0   14496   97974    3821   94153   92660  1493.1    0.00     0.0     0.0    0.00     0.0     0.0    0.00
 2020 142   339       0   14496   97978    3821   94157   92657  1499.7    0.00     0.0     0.0    0.00     0.0     0.0    0.00
 2020 143   340       0   14495   98002    3842   94160   92654  1506.4    0.00     0.0     0.0    0.00     0.0     0.0    0.00
 2020 144   341       0   14494   98025    3861   94164   92651  1513.0    0.00     0.0     0.0    0.00     0.0     0.0    0.00
 2020 145   342       0   14494   98048    3881   94167   92647  1519.7    0.00     0.0     0.0    0.00     0.0     0.0    0.00
 2020 146   343       0   14493   98066    3896   94170   92644  1526.4    0.00     0.0     0.0    0.00     0.0     0.0    0.00
 2020 147   344       0   14493   98083    3909   94174   92641  1533.1    0.00     0.0     0.0    0.00     0.0     0.0    0.00
 2020 148   345       0   14492   98101    3924   94177   92637  1539.9    0.00     0.0     0.0    0.00     0.0     0.0    0.00
 2020 149   346       0   14492   98140    3960   94180   92634  1546.7    0.00     0.0     0.0    0.00     0.0     0.0    0.00
 2020 150   347       0   14491   98177    3993   94184   92630  1553.5    0.00     0.0     0.0    0.00     0.0     0.0    0.00
 2020 151   348       0   14491   98202    4015   94187   92627  1560.4    0.00     0.0     0.0    0.00     0.0     0.0    0.00
 2020 152   349       0   14490   98248    4057   94190   92623  1567.4    0.00     0.0     0.0    0.00     0.0     0.0    0.00
 2020 153   350       0   14489   98276    4082   94194   92619  1574.4    0.00     0.0     0.0    0.00     0.0     0.0    0.00
 2020 154   351       0   14489   98317    4120   94197   92615  1581.5    0.00     0.0     0.0    0.00     0.0     0.0    0.00
 2020 155   352       0   14488   98363    4163   94200   92611  1588.6    0.00     0.0     0.0    0.00     0.0     0.0    0.00
 2020 156   353       0   14488   98396    4192   94203   92607  1595.9    0.00     0.0     0.0    0.00     0.0     0.0    0.00
 2020 157   354       0   14487   98447    4240   94207   92603  1603.2    0.00     0.0     0.0    0.00     0.0     0.0    0.00
 2020 158   355       0   14487   98485    4275   94210   92600  1610.6    0.00     0.0     0.0    0.00     0.0     0.0    0.00
 2020 159   356       0   14486   98513    4299   94214   92596  1618.1    0.00     0.0     0.0    0.00     0.0     0.0    0.00
 2020 160   357       0   14486   98567    4350   94217   92592  1625.5    0.00     0.0     0.0    0.00     0.0     0.0    0.00
 2020 161   358       0   14485   98605    4384   94221   92587  1633.1    0.00     0.0     0.0    0.00     0.0     0.0    0.00
 2020 162   359       0   14484   98635    4411   94224   92583  1640.8    0.00     0.0     0.0    0.00     0.0     0.0    0.00
 2020 163   360       0   14484   98694    4466   94228   92579  1648.5    0.00     0.0     0.0    0.00     0.0     0.0    0.00
 2020 164   361       0   14483   98733    4502   94232   92575  1656.3    0.00     0.0     0.0    0.00     0.0     0.0    0.00
 2020 165   362       0   14483   98764    4529   94236   92571  1664.1    0.00     0.0     0.0    0.00     0.0     0.0    0.00
 2020 166   363       0   14482   98823    4583   94240   92567  1672.0    0.00     0.0     0.0    0.00     0.0     0.0    0.00
 2020 167   364       0   14482   98871    4627   94244   92564  1680.1    0.00     0.0     0.0    0.00     0.0     0.0    0.00
 2020 168   365       0   14481   98906    4658   94248   92560  1688.2    0.00     0.0     0.0    0.00     0.0     0.0    0.00
 2020 169   366       0   14481   98968    4716   94252   92556  1696.3    0.00     0.0     0.0    0.00     0.0     0.0    0.00
 2020 170   367       0   14480   99009    4753   94256   92552  1704.5    0.00     0.0     0.0    0.00     0.0     0.0    0.00
 2020 171   368       0   14480   99039    4778   94261   92548  1712.8    0.00     0.0     0.0    0.00     0.0     0.0    0.00
 2020 172   369       0   14479   99101    4836   94265   92544  1721.2    0.00     0.0     0.0    0.00     0.0     0.0    0.00
 2020 173   370       0   14478   99146    4877   94269   92540  1729.6    0.00     0.0     0.0    0.00     0.0     0.0    0.00
 2020 174   371       0   14478   99181    4907   94274   92536  1738.1    0.00     0.0     0.0    0.00     0.0     0.0    0.00
 2020 175   372       0   14477   99241    4963   94279   92532  1746.7    0.00     0.0     0.0    0.00     0.0     0.0    0.00
 2020 176   373       0   14477   99291    5007   94283   92528  1755.4    0.00     0.0     0.0    0.00     0.0     0.0    0.00
 2020 177   374       0   14476   99324    5036   94288   92524  1764.2    0.00     0.0     0.0    0.00     0.0     0.0    0.00
 2020 178   375       0   14476   99387    5093   94293   92520  1773.0    0.00     0.0     0.0    0.00     0.0     0.0    0.00
 2020 179   376       0   14475   99438    5139   94298   92517  1781.8    0.00     0.0     0.0    0.00     0.0     0.0    0.00
 2020 180   377       0   14475   99472    5168   94304   92513  1790.6    0.00     0.0     0.0    0.00     0.0     0.0    0.00
 2020 181   378       0   14474   99504    5195   94309   92509  1799.4    0.00     0.0     0.0    0.00     0.0     0.0    0.00
 2020 182   379       0   14474   99558    5244   94314   92506  1808.2    0.00     0.0     0.0    0.00     0.0     0.0    0.00
 2020 183   380       0   14473   99596    5276   94319   92502  1816.9    0.00     0.0     0.0    0.00     0.0     0.0    0.00
 2020 184   381       0   14473   99635    5310   94324   92499  1825.8    0.00     0.0     0.0    0.00     0.0     0.0    0.00
 2020 185   382       0   14472   99716    5386   94330   92495  1834.9    0.00     0.0     0.0    0.00     0.0     0.0    0.00
 2020 186   383       0   14472   99774    5438   94335   92491  1844.2    0.00     0.0     0.0    0.00     0.0     0.0    0.00
 2020 187   384       0   14471   99812    5471   94341   92488  1853.5    0.00     0.0     0.0    0.00     0.0     0.0    0.00
 2020 188   385       0   14471   99854    5507   94347   92484  1862.9    0.00     0.0     0.0    0.00     0.0     0.0    0.00
 2020 189   386       0   14470   99933    5581   94352   92480  1872.2    0.00     0.0     0.0    0.00     0.0     0.0    0.00
 2020 190   387       0   14470   99984    5626   94358   92476  1881.5    0.00     0.0     0.0    0.00     0.0     0.0    0.00
 2020 191   388       0   14469  100036    5672   94364   92473  1890.8    0.00     0.0     0.0    0.00     0.0     0.0    0.00
 2020 192   389       0   14469  100088    5719   94369   92469  1900.4    0.00     0.0     0.0    0.00     0.0     0.0    0.00
 2020 193   390       0   14468  100161    5786   94375   92465  1909.9    0.00     0.0     0.0    0.00     0.0     0.0    0.00
 2020 194   391       0   14467  100205    5824   94381   92462  1919.3    0.00     0.0     0.0    0.00     0.0     0.0    0.00
 2020 195   392       0   14467  100253    5866   94387   92458  1928.6    0.00     0.0     0.0    0.00     0.0     0.0    0.00
 2020 196   393       0   14466  100300    5908   94392   92454  1938.0    0.00     0.0     0.0    0.00     0.0     0.0    0.00
 2020 197   394       0   14466  100383    5985   94398   92451  1947.2    0.00     0.0     0.0    0.00     0.0     0.0    0.00
 2020 198   395       0   14466  100431    6028   94404   92447  1956.5    0.00     0.0     0.0    0.00     0.0     0.0    0.00
 2020 199   396       0   14465  100480    6070   94410   92444  1966.0    0.00     0.0     0.0    0.00     0.0     0.0    0.00
 2020 200   397       0   14465  100526    6111   94416   92440  1975.5    0.00     0.0     0.0    0.00     0.0     0.0    0.00
 2020 201   398       0   14464  100621    6199   94422   92436  1985.1    0.00     0.0     0.0    0.00     0.0     0.0    0.00
 2020 202   399       0   14464  100673    6245   94428   92433  1995.0    0.00     0.0     0.0    0.00     0.0     0.0    0.00
 2020 203   400       0   14463  100723    6289   94434   92429  2004.9    0.00     0.0     0.0    0.00     0.0     0.0    0.00
 2020 204   401       0   14463  100776    6335   94440   92426  2014.9    0.00     0.0     0.0    0.00     0.0     0.0    0.00
 2020 205   402       0   14462  100870    6423   94447   92422  2025.2    0.00     0.0     0.0    0.00     0.0     0.0    0.00
 2020 206   403       0   14462  100918    6464   94454   92418  2035.5    0.00     0.0     0.0    0.00     0.0     0.0    0.00
 2020 207   404       0   14461  100969    6508   94460   92415  2045.9    0.00     0.0     0.0    0.00     0.0     0.0    0.00
 2020 208   405       0   14460  101018    6551   94467   92411  2056.2    0.00     0.0     0.0    0.00     0.0     0.0    0.00
 2020 209   406       0   14460  101119    6645   94474   92407  2066.7    0.00     0.0     0.0    0.00     0.0     0.0    0.00

*DSSAT Cropping System Model Ver. 4.8.0.010 -develop  AUG 03, 2021 18:13:13

*RUN   2        : IITA-TMS-IBA30572         CSYCA048 UYAB1901    2
 MODEL          : CSYCA048 - Cassava
 EXPERIMENT     : UYAB1901 CS UYT_GXE
 DATA PATH      : C:\DSSAT48\CASSAVA\
 TREATMENT  2   : IITA-TMS-IBA30572         CSYCA048
  
@YEAR DOY   DAS    OMAC    SCDD    SOCD    SC0D    SCTD   SOMCT    LCTD    ONAC    SNDD    SOND    SN0D    SNTD   SOMNT    LNTD
 2019 168     0       0   14671   93799       0   93799   93799     0.0    0.00     0.0     0.0    0.00     0.0     0.0    0.00
 2019 169     1       0   14670   93794       0   93794   93794     0.0    0.00     0.0     0.0    0.00     0.0     0.0    0.00
 2019 170     2       0   14670   93790       0   93790   93790     0.0    0.00     0.0     0.0    0.00     0.0     0.0    0.00
 2019 171     3       0   14669   93786       0   93786   93786     0.0    0.00     0.0     0.0    0.00     0.0     0.0    0.00
 2019 172     4       0   14669   93782       0   93782   93782     0.0    0.00     0.0     0.0    0.00     0.0     0.0    0.00
 2019 173     5       0   14668   93778       0   93778   93778     0.0    0.00     0.0     0.0    0.00     0.0     0.0    0.00
 2019 174     6       0   14668   93774       0   93774   93774     0.0    0.00     0.0     0.0    0.00     0.0     0.0    0.00
 2019 175     7       0   14667   93771       0   93771   93771     0.0    0.00     0.0     0.0    0.00     0.0     0.0    0.00
 2019 176     8       0   14667   93767       0   93767   93767     0.0    0.00     0.0     0.0    0.00     0.0     0.0    0.00
 2019 177     9       0   14666   93763       0   93763   93763     0.0    0.00     0.0     0.0    0.00     0.0     0.0    0.00
 2019 178    10       0   14666   93760       0   93760   93760     0.0    0.00     0.0     0.0    0.00     0.0     0.0    0.00
 2019 179    11       0   14665   93756       0   93756   93756     0.0    0.00     0.0     0.0    0.00     0.0     0.0    0.00
 2019 180    12       0   14665   93753       0   93753   93753     0.0    0.00     0.0     0.0    0.00     0.0     0.0    0.00
 2019 181    13       0   14665   93749       0   93749   93749     0.0    0.00     0.0     0.0    0.00     0.0     0.0    0.00
 2019 182    14       0   14664   93745       0   93745   93745     0.0    0.00     0.0     0.0    0.00     0.0     0.0    0.00
 2019 183    15       0   14664   93742       0   93742   93742     0.0    0.00     0.0     0.0    0.00     0.0     0.0    0.00
 2019 184    16       0   14663   93738       0   93738   93738     0.0    0.00     0.0     0.0    0.00     0.0     0.0    0.00
 2019 185    17       0   14663   93734       0   93734   93734     0.0    0.00     0.0     0.0    0.00     0.0     0.0    0.00
 2019 186    18       0   14662   93730       0   93730   93730     0.0    0.00     0.0     0.0    0.00     0.0     0.0    0.00
 2019 187    19       0   14662   93727       0   93727   93727     0.1    0.00     0.0     0.0    0.00     0.0     0.0    0.00
 2019 188    20       0   14661   93723       0   93723   93723     0.1    0.00     0.0     0.0    0.00     0.0     0.0    0.00
 2019 189    21       0   14661   93719       0   93719   93719     0.1    0.00     0.0     0.0    0.00     0.0     0.0    0.00
 2019 190    22       0   14660   93716       0   93716   93716     0.2    0.00     0.0     0.0    0.00     0.0     0.0    0.00
 2019 191    23       0   14660   93712       0   93712   93712     0.2    0.00     0.0     0.0    0.00     0.0     0.0    0.00
 2019 192    24       0   14659   93709       0   93709   93709     0.3    0.00     0.0     0.0    0.00     0.0     0.0    0.00
 2019 193    25       0   14659   93705       0   93705   93705     0.4    0.00     0.0     0.0    0.00     0.0     0.0    0.00
 2019 194    26       0   14658   93702       0   93702   93702     0.4    0.00     0.0     0.0    0.00     0.0     0.0    0.00
 2019 195    27       0   14658   93699       0   93699   93698     0.5    0.00     0.0     0.0    0.00     0.0     0.0    0.00
 2019 196    28       0   14658   93695       0   93695   93694     0.6    0.00     0.0     0.0    0.00     0.0     0.0    0.00
 2019 197    29       0   14657   93692       0   93692   93691     0.7    0.00     0.0     0.0    0.00     0.0     0.0    0.00
 2019 198    30       0   14657   93688       0   93688   93687     0.9    0.00     0.0     0.0    0.00     0.0     0.0    0.00
 2019 199    31       0   14656   93684       0   93684   93683     1.0    0.00     0.0     0.0    0.00     0.0     0.0    0.00
 2019 200    32       0   14656   93681       0   93681   93680     1.2    0.00     0.0     0.0    0.00     0.0     0.0    0.00
 2019 201    33       0   14655   93677       0   93677   93676     1.3    0.00     0.0     0.0    0.00     0.0     0.0    0.00
 2019 202    34       0   14655   93674       0   93674   93672     1.5    0.00     0.0     0.0    0.00     0.0     0.0    0.00
 2019 203    35       0   14654   93670       0   93670   93668     1.7    0.00     0.0     0.0    0.00     0.0     0.0    0.00
 2019 204    36       0   14654   93667       0   93667   93665     1.9    0.00     0.0     0.0    0.00     0.0     0.0    0.00
 2019 205    37       0   14653   93663       0   93663   93661     2.1    0.00     0.0     0.0    0.00     0.0     0.0    0.00
 2019 206    38       0   14653   93660       0   93660   93657     2.3    0.00     0.0     0.0    0.00     0.0     0.0    0.00
 2019 207    39       0   14652   93656       0   93656   93654     2.5    0.00     0.0     0.0    0.00     0.0     0.0    0.00
 2019 208    40       0   14652   93653       0   93653   93650     2.8    0.00     0.0     0.0    0.00     0.0     0.0    0.00
 2019 209    41       0   14651   93650       0   93650   93647     3.0    0.00     0.0     0.0    0.00     0.0     0.0    0.00
 2019 210    42       0   14651   93646       0   93646   93643     3.3    0.00     0.0     0.0    0.00     0.0     0.0    0.00
 2019 211    43       0   14650   93643       0   93643   93640     3.6    0.00     0.0     0.0    0.00     0.0     0.0    0.00
 2019 212    44       0   14650   93640       0   93640   93636     3.8    0.00     0.0     0.0    0.00     0.0     0.0    0.00
 2019 213    45       0   14650   93637       0   93637   93633     4.1    0.00     0.0     0.0    0.00     0.0     0.0    0.00
 2019 214    46       0   14649   93634       0   93634   93629     4.5    0.00     0.0     0.0    0.00     0.0     0.0    0.00
 2019 215    47       0   14649   93630       0   93630   93626     4.8    0.00     0.0     0.0    0.00     0.0     0.0    0.00
 2019 216    48       0   14648   93627       0   93627   93622     5.1    0.00     0.0     0.0    0.00     0.0     0.0    0.00
 2019 217    49       0   14648   93624       0   93624   93619     5.5    0.00     0.0     0.0    0.00     0.0     0.0    0.00
 2019 218    50       0   14647   93621       0   93621   93615     5.9    0.00     0.0     0.0    0.00     0.0     0.0    0.00
 2019 219    51       0   14647   93618       0   93618   93612     6.3    0.00     0.0     0.0    0.00     0.0     0.0    0.00
 2019 220    52       0   14646   93615       0   93615   93608     6.6    0.00     0.0     0.0    0.00     0.0     0.0    0.00
 2019 221    53       0   14646   93612       0   93612   93605     7.0    0.00     0.0     0.0    0.00     0.0     0.0    0.00
 2019 222    54       0   14646   93609       0   93609   93601     7.4    0.00     0.0     0.0    0.00     0.0     0.0    0.00
 2019 223    55       0   14645   93606       0   93606   93598     7.8    0.00     0.0     0.0    0.00     0.0     0.0    0.00
 2019 224    56       0   14645   93603       0   93603   93595     8.3    0.00     0.0     0.0    0.00     0.0     0.0    0.00
 2019 225    57       0   14644   93600       0   93600   93591     8.7    0.00     0.0     0.0    0.00     0.0     0.0    0.00
 2019 226    58       0   14644   93597       0   93597   93587     9.2    0.00     0.0     0.0    0.00     0.0     0.0    0.00
 2019 227    59       0   14643   93594       0   93594   93584     9.7    0.00     0.0     0.0    0.00     0.0     0.0    0.00
 2019 228    60       0   14643   93590       0   93590   93580    10.3    0.00     0.0     0.0    0.00     0.0     0.0    0.00
 2019 229    61       0   14642   93587       0   93587   93577    10.8    0.00     0.0     0.0    0.00     0.0     0.0    0.00
 2019 230    62       0   14642   93584       0   93584   93573    11.4    0.00     0.0     0.0    0.00     0.0     0.0    0.00
 2019 231    63       0   14641   93582       0   93582   93570    11.9    0.00     0.0     0.0    0.00     0.0     0.0    0.00
 2019 232    64       0   14641   93579       0   93579   93566    12.5    0.00     0.0     0.0    0.00     0.0     0.0    0.00
 2019 233    65       0   14640   93576       0   93576   93562    13.1    0.00     0.0     0.0    0.00     0.0     0.0    0.00
 2019 234    66       0   14640   93573       0   93573   93559    13.8    0.00     0.0     0.0    0.00     0.0     0.0    0.00
 2019 235    67       0   14640   93570       0   93570   93555    14.4    0.00     0.0     0.0    0.00     0.0     0.0    0.00
 2019 236    68       0   14639   93567       0   93567   93552    15.1    0.00     0.0     0.0    0.00     0.0     0.0    0.00
 2019 237    69       0   14639   93564       0   93564   93548    15.7    0.00     0.0     0.0    0.00     0.0     0.0    0.00
 2019 238    70       0   14638   93561       0   93561   93544    16.4    0.00     0.0     0.0    0.00     0.0     0.0    0.00
 2019 239    71       0   14638   93558       0   93558   93541    17.1    0.00     0.0     0.0    0.00     0.0     0.0    0.00
 2019 240    72       0   14637   93555       0   93555   93537    17.8    0.00     0.0     0.0    0.00     0.0     0.0    0.00
 2019 241    73       0   14637   93552       0   93552   93533    18.5    0.00     0.0     0.0    0.00     0.0     0.0    0.00
 2019 242    74       0   14636   93549       0   93549   93530    19.3    0.00     0.0     0.0    0.00     0.0     0.0    0.00
 2019 243    75       0   14636   93546       0   93546   93526    20.1    0.00     0.0     0.0    0.00     0.0     0.0    0.00
 2019 244    76       0   14635   93543       0   93543   93522    20.9    0.00     0.0     0.0    0.00     0.0     0.0    0.00
 2019 245    77       0   14635   93540       0   93540   93519    21.7    0.00     0.0     0.0    0.00     0.0     0.0    0.00
 2019 246    78       0   14634   93537       0   93537   93515    22.6    0.00     0.0     0.0    0.00     0.0     0.0    0.00
 2019 247    79       0   14634   93535       0   93535   93511    23.4    0.00     0.0     0.0    0.00     0.0     0.0    0.00
 2019 248    80       0   14633   93532       0   93532   93507    24.3    0.00     0.0     0.0    0.00     0.0     0.0    0.00
 2019 249    81       0   14633   93529       0   93529   93504    25.2    0.00     0.0     0.0    0.00     0.0     0.0    0.00
 2019 250    82       0   14632   93526       0   93526   93500    26.1    0.00     0.0     0.0    0.00     0.0     0.0    0.00
 2019 251    83       0   14632   93523       0   93523   93496    27.1    0.00     0.0     0.0    0.00     0.0     0.0    0.00
 2019 252    84       0   14631   93520       0   93520   93492    28.0    0.00     0.0     0.0    0.00     0.0     0.0    0.00
 2019 253    85       0   14631   93518       0   93518   93489    28.9    0.00     0.0     0.0    0.00     0.0     0.0    0.00
 2019 254    86       0   14630   93515       0   93515   93485    29.9    0.00     0.0     0.0    0.00     0.0     0.0    0.00
 2019 255    87       0   14630   93512       0   93512   93481    30.9    0.00     0.0     0.0    0.00     0.0     0.0    0.00
 2019 256    88       0   14630   93509       0   93509   93477    31.8    0.00     0.0     0.0    0.00     0.0     0.0    0.00
 2019 257    89       0   14629   93507       1   93506   93474    32.8    0.00     0.0     0.0    0.00     0.0     0.0    0.00
 2019 258    90       0   14629   93505       1   93504   93470    33.8    0.00     0.0     0.0    0.00     0.0     0.0    0.00
 2019 259    91       0   14628   93504       3   93501   93466    34.8    0.00     0.0     0.0    0.00     0.0     0.0    0.00
 2019 260    92       0   14628   93502       4   93498   93462    35.9    0.00     0.0     0.0    0.00     0.0     0.0    0.00
 2019 261    93       0   14627   93502       6   93495   93458    36.9    0.00     0.0     0.0    0.00     0.0     0.0    0.00
 2019 262    94       0   14627   93501       9   93493   93455    38.0    0.00     0.0     0.0    0.00     0.0     0.0    0.00
 2019 263    95       0   14626   93501      11   93490   93451    39.0    0.00     0.0     0.0    0.00     0.0     0.0    0.00
 2019 264    96       0   14626   93500      13   93487   93447    40.1    0.00     0.0     0.0    0.00     0.0     0.0    0.00
 2019 265    97       0   14625   93500      15   93485   93443    41.2    0.00     0.0     0.0    0.00     0.0     0.0    0.00
 2019 266    98       0   14625   93500      18   93482   93439    42.3    0.00     0.0     0.0    0.00     0.0     0.0    0.00
 2019 267    99       0   14624   93500      21   93479   93436    43.5    0.00     0.0     0.0    0.00     0.0     0.0    0.00
 2019 268   100       0   14624   93500      24   93476   93432    44.6    0.00     0.0     0.0    0.00     0.0     0.0    0.00
 2019 269   101       0   14623   93500      27   93473   93428    45.8    0.00     0.0     0.0    0.00     0.0     0.0    0.00
 2019 270   102       0   14623   93500      30   93471   93424    47.0    0.00     0.0     0.0    0.00     0.0     0.0    0.00
 2019 271   103       0   14622   93500      32   93468   93420    48.2    0.00     0.0     0.0    0.00     0.0     0.0    0.00
 2019 272   104       0   14622   93500      35   93465   93416    49.4    0.00     0.0     0.0    0.00     0.0     0.0    0.00
 2019 273   105       0   14621   93501      38   93462   93412    50.6    0.00     0.0     0.0    0.00     0.0     0.0    0.00
 2019 274   106       0   14621   93501      41   93460   93408    51.8    0.00     0.0     0.0    0.00     0.0     0.0    0.00
 2019 275   107       0   14620   93502      45   93457   93404    53.0    0.00     0.0     0.0    0.00     0.0     0.0    0.00
 2019 276   108       0   14620   93502      48   93454   93400    54.2    0.00     0.0     0.0    0.00     0.0     0.0    0.00
 2019 277   109       0   14619   93503      51   93452   93396    55.5    0.00     0.0     0.0    0.00     0.0     0.0    0.00
 2019 278   110       0   14619   93504      55   93449   93393    56.7    0.00     0.0     0.0    0.00     0.0     0.0    0.00
 2019 279   111       0   14618   93505      58   93447   93389    58.0    0.00     0.0     0.0    0.00     0.0     0.0    0.00
 2019 280   112       0   14618   93506      61   93444   93385    59.2    0.00     0.0     0.0    0.00     0.0     0.0    0.00
 2019 281   113       0   14617   93507      65   93442   93381    60.5    0.00     0.0     0.0    0.00     0.0     0.0    0.00
 2019 282   114       0   14617   93508      68   93439   93378    61.7    0.00     0.0     0.0    0.00     0.0     0.0    0.00
 2019 283   115       0   14616   93509      72   93437   93374    63.0    0.00     0.0     0.0    0.00     0.0     0.0    0.00
 2019 284   116       0   14616   93511      76   93434   93370    64.4    0.00     0.0     0.0    0.00     0.0     0.0    0.00
 2019 285   117       0   14615   93512      80   93432   93366    65.7    0.00     0.0     0.0    0.00     0.0     0.0    0.00
 2019 286   118       0   14615   93514      84   93430   93362    67.1    0.00     0.0     0.0    0.00     0.0     0.0    0.00
 2019 287   119       0   14614   93515      88   93427   93359    68.6    0.00     0.0     0.0    0.00     0.0     0.0    0.00
 2019 288   120       0   14614   93517      92   93425   93355    70.1    0.00     0.0     0.0    0.00     0.0     0.0    0.00
 2019 289   121       0   14613   93518      96   93422   93351    71.6    0.00     0.0     0.0    0.00     0.0     0.0    0.00
 2019 290   122       0   14613   93520     100   93420   93347    73.1    0.00     0.0     0.0    0.00     0.0     0.0    0.00
 2019 291   123       0   14612   93521     104   93417   93343    74.7    0.00     0.0     0.0    0.00     0.0     0.0    0.00
 2019 292   124       0   14612   93524     109   93415   93339    76.2    0.00     0.0     0.0    0.00     0.0     0.0    0.00
 2019 293   125       0   14611   93526     113   93413   93335    77.7    0.00     0.0     0.0    0.00     0.0     0.0    0.00
 2019 294   126       0   14611   93528     117   93411   93331    79.2    0.00     0.0     0.0    0.00     0.0     0.0    0.00
 2019 295   127       0   14610   93530     122   93408   93327    80.8    0.00     0.0     0.0    0.00     0.0     0.0    0.00
 2019 296   128       0   14610   93532     126   93406   93324    82.4    0.00     0.0     0.0    0.00     0.0     0.0    0.00
 2019 297   129       0   14609   93534     130   93404   93320    84.0    0.00     0.0     0.0    0.00     0.0     0.0    0.00
 2019 298   130       0   14609   93536     134   93401   93316    85.6    0.00     0.0     0.0    0.00     0.0     0.0    0.00
 2019 299   131       0   14608   93540     140   93399   93312    87.3    0.00     0.0     0.0    0.00     0.0     0.0    0.00
 2019 300   132       0   14608   93543     146   93397   93308    89.0    0.00     0.0     0.0    0.00     0.0     0.0    0.00
 2019 301   133       0   14607   93545     150   93395   93304    90.6    0.00     0.0     0.0    0.00     0.0     0.0    0.00
 2019 302   134       0   14607   93547     155   93393   93300    92.2    0.00     0.0     0.0    0.00     0.0     0.0    0.00
 2019 303   135       0   14606   93550     159   93390   93297    93.9    0.00     0.0     0.0    0.00     0.0     0.0    0.00
 2019 304   136       0   14606   93552     164   93388   93293    95.6    0.00     0.0     0.0    0.00     0.0     0.0    0.00
 2019 305   137       0   14605   93556     170   93386   93289    97.3    0.00     0.0     0.0    0.00     0.0     0.0    0.00
 2019 306   138       0   14605   93559     175   93384   93285    99.1    0.00     0.0     0.0    0.00     0.0     0.0    0.00
 2019 307   139       0   14604   93561     180   93382   93281   100.8    0.00     0.0     0.0    0.00     0.0     0.0    0.00
 2019 308   140       0   14604   93564     185   93379   93277   102.6    0.00     0.0     0.0    0.00     0.0     0.0    0.00
 2019 309   141       0   14603   93567     190   93377   93273   104.4    0.00     0.0     0.0    0.00     0.0     0.0    0.00
 2019 310   142       0   14603   93571     196   93375   93269   106.2    0.00     0.0     0.0    0.00     0.0     0.0    0.00
 2019 311   143       0   14602   93574     202   93372   93264   108.0    0.00     0.0     0.0    0.00     0.0     0.0    0.00
 2019 312   144       0   14602   93578     208   93370   93260   109.8    0.00     0.0     0.0    0.00     0.0     0.0    0.00
 2019 313   145       0   14601   93581     213   93368   93256   111.6    0.00     0.0     0.0    0.00     0.0     0.0    0.00
 2019 314   146       0   14601   93584     219   93366   93252   113.4    0.00     0.0     0.0    0.00     0.0     0.0    0.00
 2019 315   147       0   14600   93586     223   93363   93248   115.3    0.00     0.0     0.0    0.00     0.0     0.0    0.00
 2019 316   148       0   14599   93589     228   93361   93244   117.1    0.00     0.0     0.0    0.00     0.0     0.0    0.00
 2019 317   149       0   14599   93591     232   93359   93240   119.0    0.00     0.0     0.0    0.00     0.0     0.0    0.00
 2019 318   150       0   14598   93593     236   93357   93236   120.9    0.00     0.0     0.0    0.00     0.0     0.0    0.00
 2019 319   151       0   14598   93595     240   93355   93232   122.7    0.00     0.0     0.0    0.00     0.0     0.0    0.00
 2019 320   152       0   14597   93597     244   93353   93228   124.6    0.00     0.0     0.0    0.00     0.0     0.0    0.00
 2019 321   153       0   14597   93599     248   93351   93225   126.5    0.00     0.0     0.0    0.00     0.0     0.0    0.00
 2019 322   154       0   14596   93601     251   93349   93221   128.4    0.00     0.0     0.0    0.00     0.0     0.0    0.00
 2019 323   155       0   14596   93603     255   93348   93218   130.3    0.00     0.0     0.0    0.00     0.0     0.0    0.00
 2019 324   156       0   14595   93605     259   93346   93214   132.2    0.00     0.0     0.0    0.00     0.0     0.0    0.00
 2019 325   157       0   14595   93606     262   93344   93210   134.1    0.00     0.0     0.0    0.00     0.0     0.0    0.00
 2019 326   158       0   14594   93607     265   93342   93206   136.1    0.00     0.0     0.0    0.00     0.0     0.0    0.00
 2019 327   159       0   14594   93608     268   93340   93202   138.0    0.00     0.0     0.0    0.00     0.0     0.0    0.00
 2019 328   160       0   14593   93608     271   93338   93198   139.9    0.00     0.0     0.0    0.00     0.0     0.0    0.00
 2019 329   161       0   14593   93609     273   93336   93194   141.9    0.00     0.0     0.0    0.00     0.0     0.0    0.00
 2019 330   162       0   14592   93610     276   93334   93190   143.8    0.00     0.0     0.0    0.00     0.0     0.0    0.00
 2019 331   163       0   14592   93611     278   93332   93187   145.8    0.00     0.0     0.0    0.00     0.0     0.0    0.00
 2019 332   164       0   14591   93612     281   93331   93183   147.7    0.00     0.0     0.0    0.00     0.0     0.0    0.00
 2019 333   165       0   14591   93613     284   93329   93180   149.7    0.00     0.0     0.0    0.00     0.0     0.0    0.00
 2019 334   166       0   14590   93614     287   93327   93176   151.6    0.00     0.0     0.0    0.00     0.0     0.0    0.00
 2019 335   167       0   14590   93614     289   93326   93172   153.6    0.00     0.0     0.0    0.00     0.0     0.0    0.00
 2019 336   168       0   14589   93614     290   93324   93168   155.6    0.00     0.0     0.0    0.00     0.0     0.0    0.00
 2019 337   169       0   14589   93614     293   93322   93164   157.6    0.00     0.0     0.0    0.00     0.0     0.0    0.00
 2019 338   170       0   14588   93614     294   93320   93161   159.5    0.00     0.0     0.0    0.00     0.0     0.0    0.00
 2019 339   171       0   14587   93615     297   93319   93157   161.5    0.00     0.0     0.0    0.00     0.0     0.0    0.00
 2019 340   172       0   14587   93619     302   93317   93154   163.5    0.00     0.0     0.0    0.00     0.0     0.0    0.00
 2019 341   173       0   14587   93625     309   93316   93151   165.5    0.00     0.0     0.0    0.00     0.0     0.0    0.00
 2019 342   174       0   14586   93631     317   93314   93147   167.5    0.00     0.0     0.0    0.00     0.0     0.0    0.00
 2019 343   175       0   14586   93638     325   93313   93143   169.5    0.00     0.0     0.0    0.00     0.0     0.0    0.00
 2019 344   176       0   14585   93642     331   93311   93140   171.5    0.00     0.0     0.0    0.00     0.0     0.0    0.00
 2019 345   177       0   14584   93648     338   93310   93136   173.5    0.00     0.0     0.0    0.00     0.0     0.0    0.00
 2019 346   178       0   14584   93653     345   93308   93133   175.5    0.00     0.0     0.0    0.00     0.0     0.0    0.00
 2019 347   179       0   14583   93658     351   93307   93129   177.5    0.00     0.0     0.0    0.00     0.0     0.0    0.00
 2019 348   180       0   14583   93663     358   93306   93126   179.5    0.00     0.0     0.0    0.00     0.0     0.0    0.00
 2019 349   181       0   14582   93668     364   93304   93123   181.5    0.00     0.0     0.0    0.00     0.0     0.0    0.00
 2019 350   182       0   14582   93673     370   93303   93119   183.5    0.00     0.0     0.0    0.00     0.0     0.0    0.00
 2019 351   183       0   14581   93677     376   93301   93116   185.6    0.00     0.0     0.0    0.00     0.0     0.0    0.00
 2019 352   184       0   14581   93681     381   93300   93112   187.6    0.00     0.0     0.0    0.00     0.0     0.0    0.00
 2019 353   185       0   14580   93686     387   93298   93109   189.6    0.00     0.0     0.0    0.00     0.0     0.0    0.00
 2019 354   186       0   14580   93690     393   93297   93106   191.6    0.00     0.0     0.0    0.00     0.0     0.0    0.00
 2019 355   187       0   14579   93695     399   93296   93103   193.6    0.00     0.0     0.0    0.00     0.0     0.0    0.00
 2019 356   188       0   14579   93699     404   93295   93099   195.7    0.00     0.0     0.0    0.00     0.0     0.0    0.00
 2019 357   189       0   14578   93702     409   93294   93096   197.7    0.00     0.0     0.0    0.00     0.0     0.0    0.00
 2019 358   190       0   14578   93707     414   93292   93092   199.7    0.00     0.0     0.0    0.00     0.0     0.0    0.00
 2019 359   191       0   14577   93710     419   93291   93089   201.7    0.00     0.0     0.0    0.00     0.0     0.0    0.00
 2019 360   192       0   14577   93714     424   93290   93086   203.7    0.00     0.0     0.0    0.00     0.0     0.0    0.00
 2019 361   193       0   14576   93719     430   93289   93083   205.8    0.00     0.0     0.0    0.00     0.0     0.0    0.00
 2019 362   194       0   14576   93721     434   93288   93080   207.8    0.00     0.0     0.0    0.00     0.0     0.0    0.00
 2019 363   195       0   14575   93724     438   93287   93077   209.8    0.00     0.0     0.0    0.00     0.0     0.0    0.00
 2019 364   196       0   14575   93727     441   93285   93073   211.8    0.00     0.0     0.0    0.00     0.0     0.0    0.00
 2019 365   197       0   14574   93729     445   93284   93070   213.8    0.00     0.0     0.0    0.00     0.0     0.0    0.00
 2020 001   198       0   14574   93731     448   93283   93067   215.9    0.00     0.0     0.0    0.00     0.0     0.0    0.00
 2020 002   199       0   14573   93734     452   93282   93064   217.9    0.00     0.0     0.0    0.00     0.0     0.0    0.00
 2020 003   200       0   14573   93737     456   93281   93061   219.9    0.00     0.0     0.0    0.00     0.0     0.0    0.00
 2020 004   201       0   14572   93740     460   93280   93058   221.9    0.00     0.0     0.0    0.00     0.0     0.0    0.00
 2020 005   202       0   14572   93743     464   93279   93055   223.9    0.00     0.0     0.0    0.00     0.0     0.0    0.00
 2020 006   203       0   14571   93745     467   93278   93052   226.0    0.00     0.0     0.0    0.00     0.0     0.0    0.00
 2020 007   204       0   14571   93747     471   93277   93049   228.0    0.00     0.0     0.0    0.00     0.0     0.0    0.00
[...]
 2020 055   252       0   14546   93810     584   93225   92903   322.3    0.00     0.0     0.0    0.00     0.0     0.0    0.00
 2020 056   253       0   14545   93810     586   93225   92900   324.2    0.00     0.0     0.0    0.00     0.0     0.0    0.00
 2020 057   254       0   14545   93811     588   93223   92897   326.1    0.00     0.0     0.0    0.00     0.0     0.0    0.00
 2020 058   255       0   14544   93812     590   93222   92894   328.0    0.00     0.0     0.0    0.00     0.0     0.0    0.00
 2020 059   256       0   14544   93812     592   93220   92891   329.8    0.00     0.0     0.0    0.00     0.0     0.0    0.00
 2020 060   257       0   14543   93812     593   93219   92887   331.7    0.00     0.0     0.0    0.00     0.0     0.0    0.00
 2020 061   258       0   14542   93812     594   93218   92884   333.6    0.00     0.0     0.0    0.00     0.0     0.0    0.00
 2020 062   259       0   14542   93811     595   93216   92881   335.5    0.00     0.0     0.0    0.00     0.0     0.0    0.00
 2020 063   260       0   14541   93812     597   93215   92878   337.3    0.00     0.0     0.0    0.00     0.0     0.0    0.00
 2020 064   261       0   14541   93812     598   93214   92875   339.2    0.00     0.0     0.0    0.00     0.0     0.0    0.00
 2020 065   262       0   14540   93813     600   93213   92872   341.0    0.00     0.0     0.0    0.00     0.0     0.0    0.00
 2020 066   263       0   14540   93814     601   93212   92869   342.8    0.00     0.0     0.0    0.00     0.0     0.0    0.00
 2020 067   264       0   14539   93814     603   93211   92866   344.7    0.00     0.0     0.0    0.00     0.0     0.0    0.00
 2020 068   265       0   14539   93814     604   93209   92863   346.4    0.00     0.0     0.0    0.00     0.0     0.0    0.00
 2020 069   266       0   14538   93813     605   93208   92860   348.2    0.00     0.0     0.0    0.00     0.0     0.0    0.00
 2020 070   267       0   14538   93812     606   93206   92856   350.0    0.00     0.0     0.0    0.00     0.0     0.0    0.00
 2020 071   268       0   14537   93812     607   93205   92853   351.8    0.00     0.0     0.0    0.00     0.0     0.0    0.00
 2020 072   269       0   14536   93811     608   93204   92850   353.5    0.00     0.0     0.0    0.00     0.0     0.0    0.00
 2020 073   270       0   14536   93811     609   93202   92847   355.4    0.00     0.0     0.0    0.00     0.0     0.0    0.00
 2020 074   271       0   14535   93811     610   93201   92844   357.2    0.00     0.0     0.0    0.00     0.0     0.0    0.00
 2020 075   272       0   14535   93811     611   93200   92841   359.0    0.00     0.0     0.0    0.00     0.0     0.0    0.00
 2020 076   273       0   14534   93811     612   93199   92839   360.8    0.00     0.0     0.0    0.00     0.0     0.0    0.00
 2020 077   274       0   14534   93811     612   93198   92835   362.6    0.00     0.0     0.0    0.00     0.0     0.0    0.00
 2020 078   275       0   14533   93811     614   93197   92832   364.4    0.00     0.0     0.0    0.00     0.0     0.0    0.00
 2020 079   276       0   14533   93810     615   93195   92829   366.2    0.00     0.0     0.0    0.00     0.0     0.0    0.00
 2020 080   277       0   14532   93810     616   93194   92826   368.0    0.00     0.0     0.0    0.00     0.0     0.0    0.00
 2020 081   278       0   14532   93809     617   93193   92823   369.8    0.00     0.0     0.0    0.00     0.0     0.0    0.00
 2020 082   279       0   14531   93809     617   93191   92820   371.6    0.00     0.0     0.0    0.00     0.0     0.0    0.00
 2020 083   280       0   14530   93808     618   93190   92817   373.4    0.00     0.0     0.0    0.00     0.0     0.0    0.00
 2020 084   281       0   14530   93808     620   93189   92813   375.1    0.00     0.0     0.0    0.00     0.0     0.0    0.00
 2020 085   282       0   14529   93808     621   93187   92810   376.9    0.00     0.0     0.0    0.00     0.0     0.0    0.00
 2020 086   283       0   14529   93807     621   93186   92807   378.7    0.00     0.0     0.0    0.00     0.0     0.0    0.00
 2020 087   284       0   14528   93807     622   93185   92805   380.5    0.00     0.0     0.0    0.00     0.0     0.0    0.00
 2020 088   285       0   14528   93807     623   93184   92802   382.3    0.00     0.0     0.0    0.00     0.0     0.0    0.00
 2020 089   286       0   14527   93807     624   93183   92799   384.1    0.00     0.0     0.0    0.00     0.0     0.0    0.00
 2020 090   287       0   14527   93807     625   93182   92796   385.9    0.00     0.0     0.0    0.00     0.0     0.0    0.00
 2020 091   288       0   14526   93807     626   93181   92793   387.7    0.00     0.0     0.0    0.00     0.0     0.0    0.00
 2020 092   289       0   14525   93806     627   93179   92790   389.4    0.00     0.0     0.0    0.00     0.0     0.0    0.00
 2020 093   290       0   14525   93805     628   93177   92786   391.2    0.00     0.0     0.0    0.00     0.0     0.0    0.00
 2020 094   291       0   14524   93804     629   93176   92783   393.0    0.00     0.0     0.0    0.00     0.0     0.0    0.00
 2020 095   292       0   14524   93803     629   93174   92779   394.8    0.00     0.0     0.0    0.00     0.0     0.0    0.00
 2020 096   293       0   14523   93803     630   93172   92776   396.6    0.00     0.0     0.0    0.00     0.0     0.0    0.00
 2020 097   294       0   14523   93802     631   93171   92773   398.4    0.00     0.0     0.0    0.00     0.0     0.0    0.00
 2020 098   295       0   14522   93801     631   93170   92769   400.2    0.00     0.0     0.0    0.00     0.0     0.0    0.00
 2020 099   296       0   14522   93800     632   93168   92766   401.9    0.00     0.0     0.0    0.00     0.0     0.0    0.00
 2020 100   297       0   14521   93800     633   93167   92763   403.7    0.00     0.0     0.0    0.00     0.0     0.0    0.00
 2020 101   298       0   14521   93799     634   93166   92760   405.5    0.00     0.0     0.0    0.00     0.0     0.0    0.00
 2020 102   299       0   14520   93799     635   93164   92757   407.3    0.00     0.0     0.0    0.00     0.0     0.0    0.00
 2020 103   300       0   14519   93797     635   93162   92753   409.1    0.00     0.0     0.0    0.00     0.0     0.0    0.00
 2020 104   301       0   14519   93796     636   93160   92749   410.9    0.00     0.0     0.0    0.00     0.0     0.0    0.00
 2020 105   302       0   14518   93795     636   93158   92746   412.6    0.00     0.0     0.0    0.00     0.0     0.0    0.00
 2020 106   303       0   14518   93793     637   93156   92742   414.4    0.00     0.0     0.0    0.00     0.0     0.0    0.00
 2020 107   304       0   14517   93792     637   93155   92738   416.2    0.00     0.0     0.0    0.00     0.0     0.0    0.00
 2020 108   305       0   14517   93791     638   93153   92735   418.0    0.00     0.0     0.0    0.00     0.0     0.0    0.00
 2020 109   306       0   14516   93790     639   93151   92731   419.8    0.00     0.0     0.0    0.00     0.0     0.0    0.00
 2020 110   307       0   14516   93789     639   93149   92728   421.5    0.00     0.0     0.0    0.00     0.0     0.0    0.00
 2020 111   308       0   14515   93788     640   93148   92724   423.3    0.00     0.0     0.0    0.00     0.0     0.0    0.00
 2020 112   309       0   14515   93786     641   93146   92721   425.1    0.00     0.0     0.0    0.00     0.0     0.0    0.00
 2020 113   310       0   14514   93785     641   93144   92717   426.9    0.00     0.0     0.0    0.00     0.0     0.0    0.00
 2020 114   311       0   14514   93784     642   93142   92713   428.7    0.00     0.0     0.0    0.00     0.0     0.0    0.00
 2020 115   312       0   14513   93783     643   93140   92709   430.4    0.00     0.0     0.0    0.00     0.0     0.0    0.00
 2020 116   313       0   14512   93781     643   93138   92706   432.2    0.00     0.0     0.0    0.00     0.0     0.0    0.00
 2020 117   314       0   14512   93780     644   93136   92702   434.0    0.00     0.0     0.0    0.00     0.0     0.0    0.00
 2020 118   315       0   14511   93779     644   93134   92699   435.8    0.00     0.0     0.0    0.00     0.0     0.0    0.00
 2020 119   316       0   14511   93777     645   93133   92695   437.6    0.00     0.0     0.0    0.00     0.0     0.0    0.00
 2020 120   317       0   14510   93776     645   93131   92692   439.3    0.00     0.0     0.0    0.00     0.0     0.0    0.00
 2020 121   318       0   14509   93775     646   93130   92689   441.1    0.00     0.0     0.0    0.00     0.0     0.0    0.00
 2020 122   319       0   14509   93774     646   93128   92685   442.9    0.00     0.0     0.0    0.00     0.0     0.0    0.00
 2020 123   320       0   14508   93773     646   93127   92682   444.7    0.00     0.0     0.0    0.00     0.0     0.0    0.00
 2020 124   321       0   14508   93772     647   93125   92678   446.4    0.00     0.0     0.0    0.00     0.0     0.0    0.00
 2020 125   322       0   14507   93771     648   93123   92675   448.2    0.00     0.0     0.0    0.00     0.0     0.0    0.00
 2020 126   323       0   14507   93770     648   93122   92672   450.0    0.00     0.0     0.0    0.00     0.0     0.0    0.00
 2020 127   324       0   14506   93769     649   93120   92668   451.8    0.00     0.0     0.0    0.00     0.0     0.0    0.00
 2020 128   325       0   14506   93768     650   93119   92665   453.5    0.00     0.0     0.0    0.00     0.0     0.0    0.00
 2020 129   326       0   14505   93767     650   93117   92662   455.3    0.00     0.0     0.0    0.00     0.0     0.0    0.00
 2020 130   327       0   14504   93766     651   93116   92659   457.1    0.00     0.0     0.0    0.00     0.0     0.0    0.00
 2020 131   328       0   14504   93765     651   93114   92655   458.8    0.00     0.0     0.0    0.00     0.0     0.0    0.00
 2020 132   329       0   14503   93764     651   93113   92652   460.6    0.00     0.0     0.0    0.00     0.0     0.0    0.00
 2020 133   330       0   14503   93763     651   93111   92649   462.4    0.00     0.0     0.0    0.00     0.0     0.0    0.00
 2020 134   331       0   14502   93762     651   93110   92646   464.1    0.00     0.0     0.0    0.00     0.0     0.0    0.00
 2020 135   332       0   14502   93761     651   93109   92643   465.9    0.00     0.0     0.0    0.00     0.0     0.0    0.00
 2020 136   333       0   14501   93760     652   93108   92640   467.7    0.00     0.0     0.0    0.00     0.0     0.0    0.00
 2020 137   334       0   14501   93761     654   93107   92638   469.4    0.00     0.0     0.0    0.00     0.0     0.0    0.00
 2020 138   335       0   14500   93762     656   93106   92635   471.2    0.00     0.0     0.0    0.00     0.0     0.0    0.00
 2020 139   336       0   14500   93764     659   93105   92632   472.9    0.00     0.0     0.0    0.00     0.0     0.0    0.00
 2020 140   337       0   14499   93766     662   93104   92629   474.7    0.00     0.0     0.0    0.00     0.0     0.0    0.00
 2020 141   338       0   14499   93767     664   93103   92627   476.4    0.00     0.0     0.0    0.00     0.0     0.0    0.00
 2020 142   339       0   14498   93767     665   93102   92623   478.2    0.00     0.0     0.0    0.00     0.0     0.0    0.00
 2020 143   340       0   14498   93767     667   93100   92620   479.9    0.00     0.0     0.0    0.00     0.0     0.0    0.00
 2020 144   341       0   14497   93766     669   93098   92616   481.7    0.00     0.0     0.0    0.00     0.0     0.0    0.00
 2020 145   342       0   14496   93766     670   93096   92612   483.4    0.00     0.0     0.0    0.00     0.0     0.0    0.00
 2020 146   343       0   14496   93766     672   93093   92608   485.1    0.00     0.0     0.0    0.00     0.0     0.0    0.00
 2020 147   344       0   14495   93764     673   93091   92605   486.8    0.00     0.0     0.0    0.00     0.0     0.0    0.00
 2020 148   345       0   14495   93763     674   93089   92601   488.6    0.00     0.0     0.0    0.00     0.0     0.0    0.00
 2020 149   346       0   14494   93763     676   93087   92597   490.3    0.00     0.0     0.0    0.00     0.0     0.0    0.00
 2020 150   347       0   14494   93763     677   93085   92593   492.0    0.00     0.0     0.0    0.00     0.0     0.0    0.00
 2020 151   348       0   14493   93763     680   93083   92589   493.7    0.00     0.0     0.0    0.00     0.0     0.0    0.00
 2020 152   349       0   14493   93762     682   93081   92585   495.5    0.00     0.0     0.0    0.00     0.0     0.0    0.00
 2020 153   350       0   14492   93762     683   93079   92581   497.2    0.00     0.0     0.0    0.00     0.0     0.0    0.00
 2020 154   351       0   14492   93762     685   93076   92577   498.9    0.00     0.0     0.0    0.00     0.0     0.0    0.00
 2020 155   352       0   14491   93762     688   93074   92573   500.6    0.00     0.0     0.0    0.00     0.0     0.0    0.00
 2020 156   353       0   14490   93762     690   93072   92569   502.3    0.00     0.0     0.0    0.00     0.0     0.0    0.00
 2020 157   354       0   14490   93761     691   93070   92565   504.0    0.00     0.0     0.0    0.00     0.0     0.0    0.00
 2020 158   355       0   14489   93761     694   93067   92562   505.7    0.00     0.0     0.0    0.00     0.0     0.0    0.00
 2020 159   356       0   14489   93760     695   93065   92558   507.5    0.00     0.0     0.0    0.00     0.0     0.0    0.00
 2020 160   357       0   14488   93759     697   93063   92553   509.2    0.00     0.0     0.0    0.00     0.0     0.0    0.00
 2020 161   358       0   14488   93759     698   93060   92549   510.9    0.00     0.0     0.0    0.00     0.0     0.0    0.00
 2020 162   359       0   14487   93757     699   93058   92545   512.6    0.00     0.0     0.0    0.00     0.0     0.0    0.00
 2020 163   360       0   14487   93757     701   93056   92541   514.3    0.00     0.0     0.0    0.00     0.0     0.0    0.00
 2020 164   361       0   14486   93756     702   93053   92537   516.0    0.00     0.0     0.0    0.00     0.0     0.0    0.00
 2020 165   362       0   14486   93755     704   93051   92533   517.7    0.00     0.0     0.0    0.00     0.0     0.0    0.00
 2020 166   363       0   14485   93756     707   93049   92530   519.4    0.00     0.0     0.0    0.00     0.0     0.0    0.00
 2020 167   364       0   14485   93756     709   93047   92526   521.1    0.00     0.0     0.0    0.00     0.0     0.0    0.00
 2020 168   365       0   14484   93756     711   93044   92522   522.8    0.00     0.0     0.0    0.00     0.0     0.0    0.00
 2020 169   366       0   14484   93756     714   93042   92518   524.5    0.00     0.0     0.0    0.00     0.0     0.0    0.00
 2020 170   367       0   14483   93756     716   93040   92514   526.2    0.00     0.0     0.0    0.00     0.0     0.0    0.00
 2020 171   368       0   14483   93755     717   93038   92510   527.8    0.00     0.0     0.0    0.00     0.0     0.0    0.00
 2020 172   369       0   14482   93754     719   93035   92506   529.5    0.00     0.0     0.0    0.00     0.0     0.0    0.00
 2020 173   370       0   14482   93754     721   93033   92502   531.2    0.00     0.0     0.0    0.00     0.0     0.0    0.00
 2020 174   371       0   14481   93753     722   93031   92498   532.9    0.00     0.0     0.0    0.00     0.0     0.0    0.00
 2020 175   372       0   14481   93752     724   93028   92494   534.6    0.00     0.0     0.0    0.00     0.0     0.0    0.00
 2020 176   373       0   14480   93752     726   93026   92490   536.3    0.00     0.0     0.0    0.00     0.0     0.0    0.00
 2020 177   374       0   14480   93752     728   93024   92486   537.9    0.00     0.0     0.0    0.00     0.0     0.0    0.00
 2020 178   375       0   14479   93751     730   93022   92482   539.6    0.00     0.0     0.0    0.00     0.0     0.0    0.00
 2020 179   376       0   14479   93751     731   93020   92478   541.2    0.00     0.0     0.0    0.00     0.0     0.0    0.00
 2020 180   377       0   14478   93751     734   93018   92475   542.9    0.00     0.0     0.0    0.00     0.0     0.0    0.00
 2020 181   378       0   14478   93751     735   93015   92471   544.5    0.00     0.0     0.0    0.00     0.0     0.0    0.00
 2020 182   379       0   14477   93750     737   93013   92467   546.1    0.00     0.0     0.0    0.00     0.0     0.0    0.00
 2020 183   380       0   14477   93749     738   93011   92464   547.7    0.00     0.0     0.0    0.00     0.0     0.0    0.00
 2020 184   381       0   14476   93750     741   93009   92460   549.3    0.00     0.0     0.0    0.00     0.0     0.0    0.00
 2020 185   382       0   14476   93749     742   93007   92456   550.9    0.00     0.0     0.0    0.00     0.0     0.0    0.00
 2020 186   383       0   14475   93749     744   93005   92452   552.5    0.00     0.0     0.0    0.00     0.0     0.0    0.00
 2020 187   384       0   14475   93748     745   93003   92448   554.2    0.00     0.0     0.0    0.00     0.0     0.0    0.00
 2020 188   385       0   14474   93748     747   93000   92445   555.8    0.00     0.0     0.0    0.00     0.0     0.0    0.00
 2020 189   386       0   14474   93747     749   92998   92441   557.4    0.00     0.0     0.0    0.00     0.0     0.0    0.00
 2020 190   387       0   14473   93746     750   92996   92437   558.9    0.00     0.0     0.0    0.00     0.0     0.0    0.00
 2020 191   388       0   14473   93746     752   92994   92433   560.5    0.00     0.0     0.0    0.00     0.0     0.0    0.00
 2020 192   389       0   14472   93746     754   92992   92430   562.1    0.00     0.0     0.0    0.00     0.0     0.0    0.00
 2020 193   390       0   14472   93745     755   92990   92426   563.6    0.00     0.0     0.0    0.00     0.0     0.0    0.00
 2020 194   391       0   14471   93744     756   92987   92422   565.1    0.00     0.0     0.0    0.00     0.0     0.0    0.00
 2020 195   392       0   14471   93743     758   92985   92419   566.6    0.00     0.0     0.0    0.00     0.0     0.0    0.00
 2020 196   393       0   14470   93743     760   92983   92415   568.1    0.00     0.0     0.0    0.00     0.0     0.0    0.00
 2020 197   394       0   14470   93742     761   92981   92412   569.5    0.00     0.0     0.0    0.00     0.0     0.0    0.00
 2020 198   395       0   14469   93741     763   92979   92408   571.0    0.00     0.0     0.0    0.00     0.0     0.0    0.00
 2020 199   396       0   14469   93741     764   92977   92404   572.4    0.00     0.0     0.0    0.00     0.0     0.0    0.00
 2020 200   397       0   14468   93740     765   92975   92401   573.9    0.00     0.0     0.0    0.00     0.0     0.0    0.00
 2020 201   398       0   14468   93739     766   92972   92397   575.4    0.00     0.0     0.0    0.00     0.0     0.0    0.00
 2020 202   399       0   14468   93738     768   92970   92393   576.8    0.00     0.0     0.0    0.00     0.0     0.0    0.00
 2020 203   400       0   14467   93737     769   92968   92390   578.3    0.00     0.0     0.0    0.00     0.0     0.0    0.00
 2020 204   401       0   14467   93736     770   92966   92386   579.8    0.00     0.0     0.0    0.00     0.0     0.0    0.00
 2020 205   402       0   14466   93735     771   92964   92383   581.3    0.00     0.0     0.0    0.00     0.0     0.0    0.00
 2020 206   403       0   14466   93733     771   92962   92379   582.8    0.00     0.0     0.0    0.00     0.0     0.0    0.00
 2020 207   404       0   14465   93732     772   92960   92375   584.2    0.00     0.0     0.0    0.00     0.0     0.0    0.00
 2020 208   405       0   14465   93731     774   92957   92372   585.7    0.00     0.0     0.0    0.00     0.0     0.0    0.00
 2020 209   406       0   14464   93730     775   92955   92368   587.2    0.00     0.0     0.0    0.00     0.0     0.0    0.00
