*SOIL WATER DAILY OUTPUT FILE

*DSSAT Cropping System Model Ver. 4.8.0.010 -develop  AUG 03, 2021 18:13:11

*RUN   1        : IITA-TMS-IBA000070        CSYCA048 UYAB1901    1
 MODEL          : CSYCA048 - Cassava
 EXPERIMENT     : UYAB1901 CS UYT_GXE
 DATA PATH      : C:\DSSAT48\CASSAVA\
 TREATMENT  1   : IITA-TMS-IBA000070        CSYCA048
  
!                                                                                                 Soil water content (mm3/mm3) by soil depth (cm):
!                                                                                                 0-5    5-15   15-20   20-25   25-30   30-35   35-40   40-55   55-70  70-120
@YEAR DOY   DAS  SWTD  SWXD   ROFC   DRNC   PREC  IR#C  IRRC  DTWT    MWTD  TDFD  TDFC   ROFD    SW1D    SW2D    SW3D    SW4D    SW5D    SW6D    SW7D    SW8D    SW9D    SW10
 2019 168     0   386   158      0      0      0     0     0     0    0.00   0.0   0.0   0.00   0.330   0.335   0.320   0.320   0.310   0.330   0.330   0.320   0.320   0.320
 2019 169     1   385   157      0      0      0     0     0    60    0.00   0.0   0.0   0.00   0.304   0.333   0.319   0.320   0.310   0.330   0.330   0.320   0.320   0.320
 2019 170     2   389   161      0      0     10     0     0   120    0.00   0.0   0.0   0.03   0.345   0.347   0.342   0.333   0.318   0.333   0.331   0.318   0.319   0.318
 2019 171     3   386   158      0      0     11     0     0   120    0.00   0.0   0.0   0.00   0.321   0.334   0.332   0.331   0.319   0.336   0.333   0.319   0.317   0.316
 2019 172     4   380   152      0      0     11     0     0   120    0.00   0.0   0.0   0.00   0.297   0.324   0.318   0.319   0.309   0.328   0.327   0.317   0.318   0.317
 2019 173     5   382   154      0      0     17     0     0   120    0.00   0.0   0.0   0.00   0.341   0.331   0.319   0.318   0.308   0.327   0.325   0.315   0.316   0.315
 2019 174     6   377   149      0      0     17     0     0   120    0.00   0.0   0.0   0.00   0.312   0.326   0.314   0.314   0.304   0.323   0.321   0.312   0.313   0.313
 2019 175     7   386   158      0      0     30     0     0   120    0.00   0.0   0.0   0.29   0.348   0.359   0.353   0.340   0.320   0.333   0.328   0.310   0.311   0.312
 2019 176     8   381   153      0      0     30     0     0   120    0.00   0.0   0.0   0.00   0.313   0.334   0.326   0.322   0.310   0.329   0.327   0.317   0.318   0.315
 2019 177     9   378   150      0      0     31     0     0   120    0.00   0.0   0.0   0.00   0.313   0.328   0.317   0.318   0.308   0.328   0.324   0.315   0.316   0.313
 2019 178    10   376   148      0      0     31     0     0   120    0.00   0.0   0.0   0.00   0.288   0.326   0.316   0.318   0.307   0.328   0.324   0.315   0.316   0.313
 2019 179    11   375   147      0      0     31     0     0   120    0.00   0.0   0.0   0.00   0.266   0.325   0.316   0.317   0.307   0.328   0.323   0.315   0.316   0.313
 2019 180    12   374   146      0      0     31     0     0   120    0.00   0.0   0.0   0.00   0.247   0.323   0.315   0.317   0.307   0.328   0.323   0.315   0.316   0.313
 2019 181    13   380   152      0      0     39     0     0   120    0.00   0.0   0.0   0.00   0.334   0.336   0.321   0.320   0.307   0.327   0.323   0.315   0.316   0.313
 2019 182    14   379   151      0      0     43     0     0   120    0.00   0.0   0.0   0.00   0.342   0.335   0.327   0.323   0.310   0.328   0.323   0.312   0.313   0.311
 2019 183    15   374   146      0      0     43     0     0   120    0.00   0.0   0.0   0.00   0.310   0.326   0.316   0.316   0.306   0.326   0.326   0.311   0.311   0.309
 2019 184    16   375   147      0      0     45     0     0   120    0.00   0.0   0.0   0.00   0.317   0.333   0.316   0.316   0.306   0.326   0.326   0.311   0.311   0.309
 2019 185    17   393   165      3      0     71     0     0   120    0.00   0.0   0.0   3.04   0.349   0.359   0.353   0.354   0.348   0.361   0.362   0.328   0.321   0.311
 2019 186    18   399   171      4      0     81     0     0   120    0.00   0.0   0.0   0.24   0.348   0.359   0.352   0.353   0.348   0.361   0.361   0.336   0.331   0.320
 2019 187    19   394   166      4      0     82     0     0   120    0.00   0.0   0.0   0.00   0.319   0.337   0.340   0.343   0.337   0.357   0.358   0.330   0.330   0.323
 2019 188    20   400   172      4      0     92     0     0   120    0.00   0.0   0.0   0.07   0.350   0.353   0.353   0.351   0.339   0.357   0.357   0.327   0.328   0.323
 2019 189    21   396   168      4      1     94     0     0   119    0.00   0.0   0.0   0.00   0.334   0.339   0.342   0.344   0.335   0.355   0.355   0.326   0.326   0.323
 2019 190    22   391   163      4      3     94     0     0   120    0.00   0.0   0.0   0.00   0.313   0.329   0.325   0.330   0.324   0.347   0.349   0.324   0.325   0.322
 2019 191    23   386   158      4      4     96     0     0   120    0.00   0.0   0.0   0.00   0.310   0.321   0.315   0.319   0.313   0.337   0.340   0.322   0.322   0.321
 2019 192    24   384   156      4      4     98     0     0   120    0.00   0.0   0.0   0.00   0.321   0.320   0.310   0.314   0.307   0.330   0.333   0.320   0.320   0.321
 2019 193    25   397   169      5      4    117     0     0   120    0.00   0.0   0.0   1.16   0.350   0.359   0.352   0.353   0.344   0.351   0.344   0.321   0.321   0.320
 2019 194    26   386   158      5     10    117     0     0   120    0.00   0.0   0.0   0.00   0.314   0.333   0.324   0.326   0.317   0.333   0.331   0.319   0.319   0.318
 2019 195    27   398   170      6     10    135     0     0   120    0.00   0.0   0.0   1.18   0.349   0.358   0.352   0.353   0.347   0.361   0.358   0.324   0.322   0.321
 2019 196    28   401   173      6     11    143     0     0   120    0.00   0.0   0.0   0.06   0.349   0.357   0.352   0.353   0.347   0.361   0.361   0.330   0.326   0.322
 2019 197    29   395   167      6     13    143     0     0   120    0.00   0.0   0.0   0.00   0.317   0.335   0.337   0.341   0.335   0.356   0.357   0.328   0.327   0.323
 2019 198    30   390   162      6     14    145     0     0   120    0.00   0.0   0.0   0.00   0.314   0.326   0.321   0.326   0.321   0.345   0.348   0.325   0.325   0.322
 2019 199    31   383   155      6     17    145     0     0   120    0.00   0.0   0.0   0.00   0.296   0.317   0.314   0.317   0.309   0.331   0.333   0.320   0.320   0.321
 2019 200    32   391   163      6     17    158     0     0   120    0.00   0.0   0.0   0.13   0.353   0.351   0.344   0.333   0.317   0.334   0.333   0.319   0.321   0.319
 2019 201    33   387   159      6     17    159     0     0   120    0.00   0.0   0.0   0.00   0.324   0.334   0.333   0.331   0.318   0.336   0.334   0.319   0.319   0.319
 2019 202    34   382   154      6     17    159     0     0   120    0.00   0.0   0.0   0.00   0.302   0.323   0.317   0.317   0.307   0.327   0.327   0.318   0.318   0.319
 2019 203    35   381   153      6     17    161     0     0   120    0.00   0.0   0.0   0.00   0.305   0.321   0.313   0.314   0.305   0.325   0.326   0.317   0.318   0.319
 2019 204    36   379   151      6     17    161     0     0   120    0.00   0.0   0.0   0.00   0.290   0.315   0.309   0.311   0.302   0.322   0.324   0.317   0.318   0.318
 2019 205    37   376   148      6     17    161     0     0   120    0.00   0.0   0.0   0.00   0.267   0.310   0.305   0.307   0.299   0.320   0.322   0.316   0.318   0.318
 2019 206    38   381   153      6     17    168     0     0   120    0.00   0.0   0.0   0.00   0.334   0.326   0.301   0.304   0.296   0.318   0.320   0.316   0.318   0.318
 2019 207    39   377   149      6     17    169     0     0   120    0.00   0.0   0.0   0.00   0.318   0.321   0.295   0.299   0.291   0.313   0.317   0.314   0.317   0.317
 2019 208    40   374   146      6     17    169     0     0   120    0.00   0.0   0.0   0.00   0.288   0.315   0.291   0.295   0.288   0.311   0.315   0.313   0.317   0.317
 2019 209    41   371   143      6     17    169     0     0   120    0.00   0.0   0.0   0.00   0.261   0.309   0.287   0.291   0.284   0.308   0.313   0.312   0.317   0.317
 2019 210    42   368   140      6     17    169     0     0   120    0.00   0.0   0.0   0.00   0.239   0.302   0.282   0.287   0.281   0.305   0.311   0.312   0.317   0.317
 2019 211    43   366   138      6     17    169     0     0   120    0.00   0.0   0.0   0.00   0.223   0.296   0.277   0.283   0.277   0.302   0.308   0.311   0.317   0.317
 2019 212    44   363   135      6     17    169     0     0   120    0.00   0.0   0.0   0.00   0.207   0.288   0.272   0.278   0.273   0.299   0.305   0.309   0.316   0.317
 2019 213    45   368   140      6     17    176     0     0   120    0.00   0.0   0.0   0.00   0.321   0.289   0.266   0.273   0.268   0.295   0.302   0.308   0.316   0.317
 2019 214    46   370   142      6     17    183     0     0   120    0.00   0.0   0.0   0.00   0.353   0.319   0.261   0.267   0.264   0.290   0.298   0.306   0.315   0.316
 2019 215    47   366   138      6     17    183     0     0   120    0.00   0.0   0.0   0.00   0.320   0.316   0.257   0.262   0.260   0.285   0.294   0.303   0.314   0.315
 2019 216    48   363   135      6     17    183     0     0   120    0.00   0.0   0.0   0.00   0.289   0.308   0.255   0.259   0.258   0.281   0.291   0.301   0.314   0.315
 2019 217    49   375   147      7     17    201     0     0   120    0.00   0.0   0.0   0.64   0.353   0.357   0.341   0.302   0.255   0.275   0.286   0.299   0.312   0.315
 2019 218    50   379   151      7     17    209     0     0   120    0.00   0.0   0.0   0.06   0.354   0.357   0.351   0.343   0.307   0.270   0.282   0.296   0.311   0.314
 2019 219    51   383   155      7     17    216     0     0   120    0.00   0.0   0.0   0.02   0.356   0.355   0.352   0.352   0.334   0.320   0.278   0.294   0.310   0.313
 2019 220    52   379   151      7     17    216     0     0   120    0.00   0.0   0.0   0.00   0.329   0.337   0.338   0.341   0.331   0.339   0.299   0.292   0.309   0.312
 2019 221    53   376   148      7     17    217     0     0   120    0.00   0.0   0.0   0.00   0.320   0.327   0.321   0.326   0.320   0.338   0.320   0.289   0.308   0.312
 2019 222    54   371   143      7     17    217     0     0   120    0.00   0.0   0.0   0.00   0.303   0.317   0.313   0.315   0.307   0.327   0.325   0.288   0.306   0.311
 2019 223    55   374   146      7     17    223     0     0   120    0.00   0.0   0.0   0.00   0.355   0.330   0.316   0.314   0.302   0.322   0.321   0.286   0.305   0.310
 2019 224    56   370   142      7     17    224     0     0   120    0.00   0.0   0.0   0.00   0.330   0.328   0.314   0.310   0.296   0.317   0.317   0.283   0.304   0.309
 2019 225    57   367   139      7     17    225     0     0   120    0.00   0.0   0.0   0.00   0.326   0.327   0.306   0.303   0.290   0.312   0.312   0.280   0.302   0.309
 2019 226    58   363   135      7     17    225     0     0   120    0.00   0.0   0.0   0.00   0.293   0.318   0.300   0.298   0.285   0.308   0.309   0.278   0.301   0.309
 2019 227    59   361   133      7     17    227     0     0   120    0.00   0.0   0.0   0.00   0.299   0.310   0.294   0.292   0.280   0.303   0.305   0.277   0.300   0.309
 2019 228    60   359   131      7     17    229     0     0   120    0.00   0.0   0.0   0.00   0.297   0.302   0.288   0.287   0.275   0.299   0.302   0.275   0.299   0.309
 2019 229    61   354   126      7     17    229     0     0   120    0.00   0.0   0.0   0.00   0.266   0.293   0.281   0.281   0.270   0.295   0.298   0.273   0.299   0.309
 2019 230    62   374   146      9     17    254     0     0   120    0.00   0.0   0.0   1.91   0.342   0.359   0.352   0.347   0.313   0.304   0.294   0.271   0.297   0.309
 2019 231    63   371   143      9     17    255     0     0   120    0.00   0.0   0.0   0.00   0.332   0.338   0.340   0.341   0.323   0.328   0.295   0.269   0.296   0.308
 2019 232    64   367   139      9     17    255     0     0   120    0.00   0.0   0.0   0.00   0.317   0.326   0.319   0.320   0.308   0.324   0.325   0.267   0.294   0.307
 2019 233    65   383   155     11     17    277     0     0   120    0.00   0.0   0.0   1.90   0.357   0.359   0.351   0.352   0.346   0.360   0.358   0.286   0.292   0.307
 2019 234    66   380   152     11     17    279     0     0   120    0.00   0.0   0.0   0.00   0.339   0.339   0.341   0.343   0.336   0.356   0.355   0.301   0.290   0.306
 2019 235    67   395   167     13     17    299     0     0   120    0.00   0.0   0.0   1.86   0.359   0.360   0.352   0.353   0.347   0.360   0.361   0.336   0.320   0.308
 2019 236    68   392   164     13     17    300     0     0   120    0.00   0.0   0.0   0.00   0.338   0.340   0.342   0.344   0.337   0.357   0.357   0.330   0.326   0.316
 2019 237    69   392   164     13     17    304     0     0   120    0.00   0.0   0.0   0.00   0.349   0.335   0.333   0.335   0.327   0.349   0.351   0.326   0.326   0.321
 2019 238    70   385   157     13     19    304     0     0   120    0.00   0.0   0.0   0.00   0.322   0.325   0.317   0.318   0.310   0.331   0.332   0.319   0.320   0.321
 2019 239    71   385   157     13     19    308     0     0   120    0.00   0.0   0.0   0.00   0.346   0.330   0.317   0.315   0.305   0.326   0.327   0.317   0.318   0.320
 2019 240    72   384   156     13     19    311     0     0   120    0.00   0.0   0.0   0.00   0.350   0.332   0.320   0.316   0.305   0.321   0.322   0.314   0.316   0.320
 2019 241    73   383   155     13     19    315     0     0   120    0.00   0.0   0.0   0.00   0.353   0.333   0.322   0.318   0.305   0.319   0.317   0.311   0.314   0.319
 2019 242    74   379   151     13     19    315     0     0   120    0.00   0.0   0.0   0.00   0.329   0.328   0.317   0.315   0.303   0.313   0.313   0.308   0.312   0.318
 2019 243    75   399   171     16     19    343     0     0   120    0.00   0.0   0.0   3.90   0.359   0.359   0.351   0.352   0.346   0.360   0.360   0.327   0.321   0.322
 2019 244    76   387   159     16     27    343     0     0   120    0.00   0.0   0.0   0.00   0.326   0.333   0.322   0.324   0.316   0.334   0.335   0.319   0.319   0.321
 2019 245    77   384   156     16     27    344     0     0   120    0.00   0.0   0.0   0.00   0.322   0.327   0.315   0.314   0.307   0.328   0.329   0.319   0.317   0.321
 2019 246    78   384   156     16     27    348     0     0   120    0.00   0.0   0.0   0.00   0.349   0.331   0.317   0.314   0.302   0.322   0.324   0.315   0.314   0.320
 2019 247    79   393   165     17     27    362     0     0   120    0.00   0.0   0.0   0.60   0.359   0.359   0.351   0.352   0.332   0.340   0.334   0.317   0.312   0.319
 2019 248    80   418   190     39     37    423     0     0   113    0.00   0.0   0.0  21.72   0.359   0.359   0.351   0.351   0.346   0.359   0.360   0.345   0.346   0.347
 2019 249    81   405   177     39     46    423     0     0   114    0.00   0.0   0.0   0.00   0.334   0.338   0.339   0.341   0.334   0.354   0.355   0.332   0.336   0.336
 2019 250    82   401   173     39     52    429     0     0   116    0.00   0.0   0.0   0.00   0.359   0.340   0.338   0.337   0.328   0.349   0.349   0.326   0.329   0.330
 2019 251    83   394   166     39     56    430     0     0   117    0.00   0.0   0.0   0.00   0.339   0.333   0.328   0.329   0.320   0.342   0.343   0.323   0.325   0.326
 2019 252    84   397   169     39     58    439     0     0   118    0.00   0.0   0.0   0.05   0.360   0.352   0.349   0.340   0.325   0.342   0.341   0.322   0.322   0.323
 2019 253    85   416   188     51     66    483     0     0   114    0.00   0.0   0.0  11.87   0.360   0.359   0.351   0.352   0.346   0.359   0.360   0.345   0.345   0.344
 2019 254    86   414   186     51     75    494     0     0   114    0.00   0.0   0.0   0.36   0.360   0.359   0.351   0.352   0.346   0.359   0.360   0.343   0.344   0.338
 2019 255    87   404   176     51     82    495     0     0   115    0.00   0.0   0.0   0.00   0.334   0.338   0.339   0.342   0.335   0.355   0.355   0.332   0.335   0.332
 2019 256    88   398   170     51     87    498     0     0   117    0.01   0.0   0.0   0.00   0.349   0.335   0.330   0.332   0.325   0.347   0.349   0.326   0.329   0.328
 2019 257    89   396   168     51     90    503     0     0   118    0.01   0.0   0.0   0.00   0.360   0.340   0.334   0.332   0.321   0.342   0.343   0.323   0.324   0.325
 2019 258    90   390   162     51     92    504     0     0   119    0.02   0.0   0.0   0.00   0.341   0.333   0.327   0.327   0.316   0.337   0.337   0.320   0.321   0.322
 2019 259    91   411   183     57     97    539     0     0   117    0.03   0.0   0.0   5.97   0.361   0.360   0.352   0.352   0.346   0.360   0.361   0.345   0.344   0.330
 2019 260    92   402   174     57    101    539     0     0   117    0.04   0.0   0.0   0.00   0.335   0.339   0.340   0.343   0.336   0.356   0.356   0.332   0.336   0.330
 2019 261    93   419   191     76    121    599     0     0   111    0.05   0.0   0.0  18.89   0.360   0.359   0.351   0.351   0.345   0.359   0.360   0.345   0.345   0.347
 2019 262    94   409   181     76    131    602     0     0   114    0.05   0.0   0.0   0.00   0.355   0.344   0.346   0.346   0.338   0.357   0.357   0.332   0.336   0.336
 2019 263    95   389   161     76    145    602     0     0   118    0.05   0.0   0.0   0.00   0.326   0.328   0.320   0.321   0.313   0.333   0.334   0.321   0.322   0.324
 2019 264    96   391   163     76    147    609     0     0   119    0.07   0.0   0.0   0.00   0.359   0.342   0.333   0.327   0.314   0.332   0.331   0.318   0.319   0.321
 2019 265    97   387   159     76    147    611     0     0   120    0.07   0.0   0.0   0.00   0.341   0.333   0.327   0.325   0.312   0.330   0.329   0.317   0.316   0.320
 2019 266    98   390   162     76    147    618     0     0   120    0.08   0.0   0.0   0.00   0.360   0.345   0.340   0.333   0.317   0.333   0.331   0.317   0.313   0.319
 2019 267    99   403   175     77    149    638     0     0   119    0.08   0.0   0.0   1.05   0.360   0.359   0.351   0.352   0.346   0.359   0.360   0.337   0.327   0.323
 2019 268   100   410   182     77    153    654     0     0   118    0.09   0.0   0.0   0.32   0.359   0.358   0.350   0.351   0.345   0.359   0.359   0.344   0.343   0.330
 2019 269   101   408   180     77    157    661     0     0   117    0.09   0.0   0.0   0.00   0.360   0.356   0.351   0.352   0.346   0.359   0.360   0.334   0.337   0.330
 2019 270   102   415   187     78    165    681     0     0   115    0.10   0.0   0.0   0.98   0.361   0.360   0.351   0.352   0.346   0.360   0.360   0.345   0.345   0.339
 2019 271   103   415   187     78    174    694     0     0   114    0.11   0.0   0.0   0.07   0.359   0.358   0.350   0.351   0.345   0.359   0.360   0.344   0.345   0.339
 2019 272   104   406   178     78    181    697     0     0   115    0.11   0.0   0.0   0.00   0.355   0.343   0.345   0.345   0.337   0.356   0.356   0.332   0.336   0.333
 2019 273   105   399   171     78    186    699     0     0   117    0.11   0.0   0.0   0.00   0.344   0.335   0.333   0.336   0.328   0.349   0.350   0.326   0.329   0.328
 2019 274   106   403   175     78    190    712     0     0   118    0.12   0.0   0.0   0.00   0.360   0.359   0.351   0.352   0.346   0.359   0.359   0.326   0.326   0.325
 2019 275   107   410   182     79    194    727     0     0   117    0.12   0.0   0.0   0.18   0.361   0.360   0.352   0.352   0.346   0.360   0.360   0.345   0.341   0.330
 2019 276   108   420   192     83    210    761     0     0   111    0.13   0.0   0.0   4.44   0.361   0.360   0.352   0.352   0.346   0.360   0.360   0.345   0.345   0.347
 2019 277   109   413   185     83    220    768     0     0   114    0.14   0.0   0.0   0.00   0.361   0.359   0.351   0.352   0.346   0.360   0.360   0.336   0.339   0.337
 2019 278   110   391   163     83    237    768     0     0   118    0.12   0.0   0.0   0.00   0.330   0.335   0.323   0.325   0.316   0.335   0.336   0.322   0.324   0.325
 2019 279   111   393   165     83    239    776     0     0   119    0.16   0.0   0.0   0.00   0.362   0.344   0.337   0.331   0.318   0.335   0.334   0.320   0.320   0.322
 2019 280   112   401   173     83    240    789     0     0   119    0.17   0.0   0.0   0.00   0.362   0.361   0.352   0.353   0.347   0.360   0.359   0.324   0.322   0.321
 2019 281   113   402   174     83    242    795     0     0   119    0.18   0.0   0.0   0.00   0.362   0.356   0.352   0.352   0.346   0.360   0.361   0.328   0.325   0.323
 2019 282   114   397   169     83    243    796     0     0   119    0.20   0.0   0.0   0.00   0.343   0.340   0.342   0.344   0.337   0.357   0.357   0.327   0.325   0.323
 2019 283   115   396   168     83    245    800     0     0   119    0.21   0.0   0.0   0.00   0.358   0.338   0.335   0.337   0.329   0.350   0.351   0.325   0.324   0.323
 2019 284   116   420   192     97    262    860     0     0   111    0.22   0.0   0.0  14.45   0.361   0.360   0.352   0.352   0.346   0.360   0.360   0.345   0.345   0.347
 2019 285   117   417   189     97    273    872     0     0   113    0.24   0.0   0.0   0.00   0.361   0.360   0.351   0.352   0.346   0.360   0.360   0.345   0.345   0.340
 2019 286   118   405   177     97    281    872     0     0   115    0.26   0.0   0.0   0.00   0.334   0.339   0.340   0.343   0.336   0.356   0.356   0.332   0.336   0.333
 2019 287   119   418   190     98    292    901     0     0   113    0.27   0.0   0.0   1.05   0.361   0.360   0.351   0.352   0.346   0.360   0.360   0.345   0.345   0.345
 2019 288   120   408   180     98    300    905     0     0   114    0.29   0.0   0.0   0.00   0.359   0.345   0.348   0.348   0.339   0.358   0.358   0.333   0.336   0.335
 2019 289   121   409   181     98    307    916     0     0   116    0.29   0.0   0.0   0.00   0.361   0.360   0.351   0.352   0.346   0.360   0.360   0.335   0.335   0.331
 2019 290   122   405   177     98    312    920     0     0   117    0.32   0.0   0.0   0.00   0.363   0.349   0.352   0.351   0.341   0.359   0.359   0.330   0.331   0.328
 2019 291   123   420   192    103    330    962     0     0   111    0.32   0.0   0.0   4.41   0.362   0.361   0.352   0.353   0.347   0.360   0.361   0.345   0.345   0.347
 2019 292   124   412   184    103    340    968     0     0   114    0.34   0.0   0.0   0.00   0.362   0.355   0.352   0.353   0.347   0.360   0.361   0.335   0.338   0.336
 2019 293   125   405   177    103    346    971     0     0   116    0.35   0.0   0.0   0.00   0.360   0.344   0.347   0.347   0.339   0.358   0.358   0.329   0.331   0.330
 2019 294   126   410   182    103    352    987     0     0   116    0.35   0.0   0.0   0.00   0.361   0.360   0.352   0.352   0.346   0.360   0.360   0.343   0.338   0.331
 2019 295   127   420   192    168    409   1122     0     0   112    0.37   0.0   0.0  64.73   0.362   0.360   0.352   0.352   0.346   0.360   0.360   0.345   0.345   0.347
 2019 296   128   420   192    168    423   1140     0     0   112    0.39   0.0   0.0   0.00   0.362   0.360   0.352   0.352   0.346   0.360   0.361   0.345   0.345   0.347
 2019 297   129   413   185    168    432   1146     0     0   114    0.40   0.0   0.0   0.00   0.362   0.358   0.352   0.353   0.347   0.360   0.361   0.336   0.338   0.336
 2019 298   130   410   182    168    440   1155     0     0   115    0.41   0.0   0.0   0.00   0.362   0.360   0.352   0.352   0.346   0.360   0.361   0.335   0.335   0.332
 2019 299   131   420   192    169    460   1191     0     0   112    0.42   0.0   0.0   1.72   0.362   0.360   0.352   0.352   0.346   0.360   0.360   0.345   0.345   0.347
 2019 300   132   420   192    169    479   1215     0     0   111    0.44   0.0   0.0   0.00   0.363   0.361   0.353   0.353   0.347   0.361   0.361   0.345   0.345   0.347
 2019 301   133   415   187    169    489   1224     0     0   113    0.44   0.0   0.0   0.00   0.362   0.361   0.352   0.353   0.347   0.360   0.361   0.342   0.342   0.338
 2019 302   134   404   176    169    497   1224     0     0   115    0.44   0.0   0.0   0.00   0.336   0.339   0.341   0.343   0.336   0.356   0.356   0.331   0.334   0.332
 2019 303   135   396   168    169    502   1226     0     0   117    0.46   0.0   0.0   0.00   0.338   0.333   0.328   0.332   0.325   0.347   0.349   0.326   0.328   0.327
 2019 304   136   419   191    283    557   1423     0     0   112    0.48   0.0   0.0 113.71   0.361   0.360   0.351   0.352   0.346   0.360   0.360   0.345   0.345   0.347
 2019 305   137   411   183    283    566   1428     0     0   114    0.49   0.0   0.0   0.00   0.361   0.353   0.351   0.352   0.346   0.360   0.360   0.333   0.336   0.336
 2019 306   138   419   191    285    591   1467     0     0   112    0.50   0.0   0.0   1.73   0.361   0.360   0.351   0.352   0.346   0.360   0.360   0.345   0.345   0.347
 2019 307   139   394   166    285    612   1467     0     0   117    0.43   0.0   0.0   0.00   0.331   0.335   0.324   0.325   0.317   0.335   0.336   0.325   0.326   0.328
 2019 308   140   385   157    285    617   1467     0     0   119    0.36   0.0   0.0   0.00   0.322   0.327   0.314   0.316   0.307   0.327   0.327   0.319   0.319   0.322
 2019 309   141   380   152    285    617   1467     0     0   120    0.30   0.0   0.0   0.00   0.311   0.319   0.307   0.309   0.301   0.321   0.323   0.315   0.316   0.320
 2019 310   142   376   148    285    617   1467     0     0   120    0.25   0.0   0.0   0.00   0.302   0.310   0.300   0.303   0.295   0.316   0.318   0.312   0.313   0.319
 2019 311   143   372   144    285    617   1467     0     0   120    0.20   0.0   0.0   0.00   0.291   0.302   0.293   0.296   0.289   0.311   0.313   0.309   0.309   0.317
 2019 312   144   367   139    285    617   1467     0     0   120    0.15   0.0   0.0   0.00   0.280   0.293   0.286   0.290   0.283   0.305   0.308   0.305   0.306   0.316
 2019 313   145   363   135    285    617   1467     0     0   120    0.20   0.0   0.0   0.00   0.271   0.285   0.278   0.283   0.277   0.300   0.303   0.302   0.303   0.315
 2019 314   146   370   142    285    617   1480     0     0   120    0.65   0.0   0.0   0.00   0.361   0.333   0.295   0.277   0.271   0.295   0.299   0.299   0.300   0.313
 2019 315   147   368   140    285    617   1482     0     0   120    0.69   0.0   0.0   0.00   0.349   0.333   0.312   0.271   0.265   0.290   0.294   0.296   0.297   0.312
 2019 316   148   364   136    285    617   1482     0     0   120    0.63   0.0   0.0   0.00   0.328   0.328   0.314   0.266   0.262   0.285   0.290   0.293   0.294   0.311
 2019 317   149   360   132    285    617   1482     0     0   120    0.74   0.0   0.0   0.00   0.323   0.322   0.306   0.261   0.258   0.280   0.285   0.290   0.291   0.310
 2019 318   150   356   128    285    617   1482     0     0   120    0.71   0.0   0.0   0.00   0.313   0.312   0.299   0.257   0.255   0.274   0.280   0.286   0.287   0.308
 2019 319   151   351   123    285    617   1482     0     0   120    0.62   0.0   0.0   0.00   0.302   0.303   0.291   0.254   0.253   0.268   0.275   0.282   0.284   0.306
 2019 320   152   347   119    285    617   1482     0     0   120    0.53   0.0   0.0   0.00   0.291   0.294   0.283   0.251   0.251   0.263   0.270   0.279   0.280   0.305
 2019 321   153   342   114    285    617   1482     0     0   120    0.42   0.0   0.0   0.00   0.279   0.284   0.274   0.249   0.249   0.259   0.264   0.275   0.276   0.303
 2019 322   154   338   110    285    617   1482     0     0   120    0.31   0.0   0.0   0.00   0.267   0.274   0.266   0.247   0.247   0.256   0.260   0.271   0.272   0.302
 2019 323   155   333   105    285    617   1482     0     0   120    0.18   0.0   0.0   0.00   0.256   0.263   0.259   0.246   0.246   0.253   0.257   0.267   0.268   0.300
 2019 324   156   356   128    285    617   1484     1    26   120    0.98   0.0   0.0   0.00   0.365   0.360   0.353   0.331   0.268   0.251   0.254   0.263   0.264   0.298
 2019 325   157   356   128    285    617   1488     1    26   120    0.95   0.0   0.0   0.00   0.361   0.348   0.351   0.343   0.309   0.259   0.253   0.261   0.262   0.296
 2019 326   158   352   124    285    617   1488     1    26   120    0.82   0.0   0.0   0.00   0.330   0.330   0.323   0.321   0.303   0.327   0.251   0.259   0.260   0.295
 2019 327   159   348   120    285    617   1488     1    26   120    0.69   0.0   0.0   0.00   0.319   0.321   0.315   0.314   0.297   0.321   0.250   0.257   0.258   0.293
 2019 328   160   344   116    285    617   1488     1    26   120    0.55   0.0   0.0   0.00   0.308   0.311   0.307   0.306   0.290   0.315   0.248   0.256   0.257   0.292
 2019 329   161   339   111    285    617   1488     1    26   120    0.40   0.0   0.0   0.00   0.297   0.301   0.298   0.299   0.283   0.309   0.247   0.254   0.255   0.290
 2019 330   162   335   107    285    617   1488     1    26   120    0.26   0.0   0.0   0.00   0.285   0.291   0.290   0.291   0.276   0.303   0.246   0.253   0.254   0.288
 2019 331   163   330   102    285    617   1488     1    26   120    0.11   0.0   0.0   0.00   0.273   0.281   0.280   0.283   0.268   0.296   0.245   0.252   0.253   0.286
 2019 332   164   326    98    285    617   1488     1    26   120    0.05   0.0   0.0   0.00   0.259   0.270   0.271   0.275   0.261   0.289   0.244   0.251   0.251   0.285
 2019 333   165   321    93    285    617   1488     1    26   120    0.03   0.0   0.0   0.00   0.250   0.258   0.261   0.266   0.256   0.282   0.243   0.250   0.250   0.283
 2019 334   166   317    89    285    617   1488     1    26   120    0.02   0.0   0.0   0.00   0.243   0.250   0.253   0.256   0.252   0.271   0.241   0.248   0.249   0.280
 2019 335   167   340   112    285    617   1488     2    53   120    0.02   0.0   0.0   0.00   0.366   0.363   0.353   0.319   0.256   0.260   0.240   0.247   0.247   0.277
 2019 336   168   336   108    285    617   1489     2    53   120    0.24   0.0   0.0   0.00   0.332   0.337   0.340   0.330   0.287   0.256   0.239   0.246   0.246   0.275
 2019 337   169   331   103    285    617   1489     2    53   120    0.09   0.0   0.0   0.00   0.320   0.327   0.318   0.315   0.299   0.253   0.238   0.245   0.246   0.273
 2019 338   170   327    99    285    617   1489     2    53   120    0.04   0.0   0.0   0.00   0.305   0.315   0.308   0.306   0.291   0.251   0.238   0.244   0.245   0.271
 2019 339   171   322    94    285    617   1489     2    53   120    0.02   0.0   0.0   0.00   0.290   0.304   0.298   0.298   0.283   0.249   0.237   0.244   0.244   0.269
 2019 340   172   318    90    285    617   1489     2    53   120    0.01   0.0   0.0   0.00   0.277   0.293   0.289   0.290   0.275   0.247   0.236   0.243   0.243   0.268
 2019 341   173   314    86    285    617   1489     2    53   120    0.01   0.0   0.0   0.00   0.261   0.281   0.279   0.281   0.267   0.246   0.236   0.242   0.243   0.266
 2019 342   174   310    82    285    617   1489     2    53   120    0.01   0.0   0.0   0.00   0.250   0.269   0.269   0.271   0.259   0.244   0.235   0.242   0.242   0.265
 2019 343   175   305    77    285    617   1489     2    53   120    0.01   0.0   0.0   0.00   0.243   0.254   0.256   0.260   0.254   0.243   0.234   0.241   0.241   0.263
 2019 344   176   327    99    285    617   1489     3    80   120    0.01   0.0   0.0   0.00   0.365   0.359   0.349   0.313   0.255   0.240   0.233   0.240   0.240   0.261
 2019 345   177   322    94    285    617   1489     3    80   120    0.01   0.0   0.0   0.00   0.325   0.329   0.318   0.309   0.306   0.250   0.233   0.239   0.239   0.260
 2019 346   178   318    90    285    617   1489     3    80   120    0.01   0.0   0.0   0.00   0.308   0.316   0.307   0.299   0.297   0.248   0.232   0.238   0.239   0.259
 2019 347   179   313    85    285    617   1489     3    80   120    0.01   0.0   0.0   0.00   0.290   0.302   0.295   0.288   0.287   0.246   0.232   0.238   0.238   0.258
 2019 348   180   309    81    285    617   1489     3    80   120    0.17   0.0   0.0   0.00   0.275   0.289   0.283   0.278   0.278   0.244   0.231   0.237   0.238   0.257
 2019 349   181   304    76    285    617   1489     3    80   120    0.06   0.0   0.0   0.00   0.259   0.275   0.272   0.267   0.268   0.243   0.231   0.237   0.237   0.256
 2019 350   182   300    72    285    617   1489     3    80   120    0.03   0.0   0.0   0.00   0.248   0.259   0.259   0.256   0.258   0.241   0.230   0.236   0.237   0.255
 2019 351   183   321    93    285    617   1489     4   105   120    0.02   0.0   0.0   0.00   0.363   0.354   0.347   0.314   0.254   0.239   0.229   0.235   0.236   0.254
 2019 352   184   317    89    285    617   1489     4   105   120    0.02   0.0   0.0   0.00   0.326   0.328   0.318   0.310   0.307   0.239   0.229   0.235   0.235   0.253
 2019 353   185   313    85    285    617   1489     4   105   120    0.02   0.0   0.0   0.00   0.309   0.315   0.307   0.300   0.298   0.238   0.228   0.234   0.235   0.252
 2019 354   186   308    80    285    617   1489     4   105   120    0.01   0.0   0.0   0.00   0.292   0.301   0.295   0.289   0.288   0.237   0.228   0.234   0.234   0.252
 2019 355   187   304    76    285    617   1489     4   105   120    0.26   0.0   0.0   0.00   0.275   0.287   0.283   0.278   0.278   0.236   0.227   0.234   0.234   0.251
 2019 356   188   299    71    285    617   1489     4   105   120    0.08   0.0   0.0   0.00   0.258   0.272   0.270   0.267   0.267   0.235   0.227   0.233   0.234   0.251
 2019 357   189   295    67    285    617   1489     4   105   120    0.20   0.0   0.0   0.00   0.248   0.256   0.256   0.256   0.257   0.234   0.227   0.233   0.233   0.250
 2019 358   190   316    88    285    617   1489     5   131   120    0.07   0.0   0.0   0.00   0.362   0.354   0.346   0.312   0.251   0.233   0.226   0.232   0.232   0.249
 2019 359   191   312    84    285    617   1489     5   131   120    0.03   0.0   0.0   0.00   0.322   0.326   0.315   0.308   0.303   0.232   0.225   0.231   0.232   0.248
 2019 360   192   307    79    285    617   1489     5   131   120    0.01   0.0   0.0   0.00   0.303   0.310   0.302   0.296   0.292   0.231   0.225   0.231   0.231   0.248
 2019 361   193   303    75    285    617   1489     5   131   120    0.01   0.0   0.0   0.00   0.284   0.296   0.290   0.285   0.282   0.231   0.225   0.231   0.231   0.247
 2019 362   194   299    71    285    617   1489     5   131   120    0.01   0.0   0.0   0.00   0.267   0.282   0.279   0.274   0.273   0.230   0.224   0.230   0.231   0.247
 2019 363   195   294    66    285    617   1490     5   131   120    0.27   0.0   0.0   0.00   0.250   0.267   0.266   0.263   0.263   0.229   0.224   0.230   0.230   0.246
 2019 364   196   290    62    285    617   1491     5   131   120    1.11   0.0   0.0   0.00   0.247   0.248   0.252   0.253   0.253   0.229   0.223   0.229   0.230   0.246
 2019 365   197   314    86    285    617   1491     6   159   120    0.84   0.0   0.0   0.00   0.361   0.359   0.348   0.314   0.251   0.227   0.223   0.229   0.229   0.245
 2020 001   198   309    81    285    617   1491     6   159   120    0.77   0.0   0.0   0.00   0.325   0.331   0.331   0.322   0.273   0.227   0.222   0.228   0.229   0.244
 2020 002   199   305    77    285    617   1491     6   159   120    0.46   0.0   0.0   0.00   0.309   0.317   0.312   0.311   0.271   0.226   0.222   0.228   0.228   0.244
 2020 003   200   301    73    285    617   1491     6   159   120    0.13   0.0   0.0   0.00   0.293   0.303   0.300   0.300   0.261   0.226   0.222   0.228   0.228   0.244
 2020 004   201   297    69    285    617   1491     6   159   120    0.04   0.0   0.0   0.00   0.277   0.290   0.289   0.290   0.256   0.226   0.222   0.228   0.228   0.243
 2020 005   202   294    66    285    617   1491     6   159   120    0.27   0.0   0.0   0.00   0.261   0.276   0.277   0.280   0.252   0.225   0.221   0.227   0.228   0.243
 2020 006   203   289    61    285    617   1491     6   159   120    0.08   0.0   0.0   0.00   0.249   0.259   0.263   0.267   0.248   0.225   0.221   0.227   0.227   0.243
 2020 007   204   310    82    285    617   1492     7   184   120    0.37   0.0   0.0   0.00   0.362   0.353   0.341   0.307   0.255   0.224   0.220   0.226   0.227   0.242
 2020 008   205   306    78    285    617   1492     7   184   120    0.10   0.0   0.0   0.00   0.323   0.326   0.314   0.308   0.296   0.224   0.220   0.226   0.226   0.242
 2020 009   206   302    74    285    617   1492     7   184   120    0.03   0.0   0.0   0.00   0.307   0.313   0.303   0.298   0.287   0.223   0.220   0.226   0.226   0.241
 2020 010   207   298    70    285    617   1492     7   184   120    0.36   0.0   0.0   0.00   0.289   0.298   0.290   0.286   0.276   0.223   0.220   0.226   0.226   0.241
 2020 011   208   294    65    285    617   1492     7   184   120    0.10   0.0   0.0   0.00   0.273   0.283   0.278   0.275   0.266   0.223   0.220   0.225   0.226   0.241
 2020 012   209   289    61    285    617   1492     7   184   120    0.03   0.0   0.0   0.00   0.255   0.268   0.265   0.264   0.257   0.222   0.219   0.225   0.226   0.241
 2020 013   210   285    57    285    617   1492     7   184   120    0.01   0.0   0.0   0.00   0.244   0.248   0.251   0.253   0.251   0.222   0.219   0.225   0.225   0.240
 2020 014   211   308    80    285    617   1492     8   212   120    0.00   0.0   0.0   0.00   0.359   0.356   0.346   0.312   0.249   0.221   0.218   0.224   0.224   0.239
 2020 015   212   304    76    285    617   1492     8   212   120    0.00   0.0   0.0   0.00   0.320   0.325   0.314   0.307   0.300   0.220   0.218   0.224   0.224   0.239
 2020 016   213   300    72    285    617   1492     8   212   120    0.00   0.0   0.0   0.00   0.304   0.312   0.303   0.297   0.291   0.220   0.218   0.224   0.224   0.239
 2020 017   214   296    68    285    617   1493     8   212   120    1.05   0.0   0.0   0.00   0.288   0.298   0.291   0.286   0.281   0.220   0.218   0.223   0.224   0.238
 2020 018   215   295    67    285    617   1497     8   212   120    1.44   0.0   0.0   0.00   0.321   0.289   0.280   0.276   0.272   0.220   0.217   0.223   0.224   0.238
 2020 019   216   291    63    285    617   1497     8   212   120    1.13   0.0   0.0   0.00   0.305   0.275   0.268   0.265   0.262   0.219   0.217   0.223   0.223   0.238
 2020 020   217   287    59    285    617   1497     8   212   120    0.79   0.0   0.0   0.00   0.288   0.260   0.256   0.256   0.256   0.219   0.217   0.223   0.223   0.238
 2020 021   218   282    54    285    617   1497     8   212   120    0.67   0.0   0.0   0.00   0.259   0.246   0.247   0.248   0.249   0.219   0.217   0.222   0.223   0.237
 2020 022   219   306    78    285    617   1497     9   240   120    0.31   0.0   0.0   0.00   0.341   0.359   0.350   0.317   0.250   0.218   0.216   0.222   0.222   0.237
 2020 023   220   301    73    285    617   1497     9   240   120    0.08   0.0   0.0   0.00   0.314   0.327   0.316   0.307   0.300   0.218   0.216   0.222   0.222   0.236
 2020 024   221   297    69    285    617   1497     9   240   120    0.02   0.0   0.0   0.00   0.295   0.310   0.302   0.295   0.289   0.217   0.216   0.221   0.222   0.236
 2020 025   222   292    64    285    617   1497     9   240   120    0.01   0.0   0.0   0.00   0.273   0.293   0.288   0.281   0.277   0.217   0.215   0.221   0.222   0.236
 2020 026   223   286    58    285    617   1497     9   240   120    0.00   0.0   0.0   0.00   0.250   0.275   0.272   0.268   0.264   0.217   0.215   0.221   0.221   0.236
 2020 027   224   282    54    285    617   1497     9   240   120    0.00   0.0   0.0   0.00   0.242   0.256   0.256   0.254   0.255   0.217   0.215   0.221   0.221   0.235
 2020 028   225   304    76    285    617   1497    10   266   120    0.00   0.0   0.0   0.00   0.362   0.350   0.343   0.312   0.250   0.216   0.215   0.220   0.221   0.235
 2020 029   226   299    71    285    617   1497    10   266   120    0.00   0.0   0.0   0.00   0.320   0.322   0.313   0.306   0.293   0.216   0.214   0.220   0.220   0.235
 2020 030   227   294    66    285    617   1499    10   266   120    1.77   0.0   0.0   0.00   0.302   0.305   0.298   0.293   0.281   0.215   0.214   0.220   0.220   0.234
 2020 031   228   291    63    285    617   1500    10   266   120    1.45   0.0   0.0   0.00   0.300   0.289   0.285   0.281   0.270   0.215   0.214   0.220   0.220   0.234
 2020 032   229   286    58    285    617   1500    10   266   120    1.33   0.0   0.0   0.00   0.280   0.272   0.270   0.268   0.257   0.215   0.214   0.220   0.220   0.234
 2020 033   230   281    53    285    617   1500    10   266   120    1.00   0.0   0.0   0.00   0.261   0.255   0.256   0.256   0.252   0.215   0.214   0.219   0.220   0.234
 2020 034   231   303    75    285    617   1501    11   292   120    0.93   0.0   0.0   0.00   0.347   0.355   0.347   0.314   0.253   0.214   0.213   0.219   0.219   0.233
 2020 035   232   298    70    285    617   1501    11   292   120    0.86   0.0   0.0   0.00   0.318   0.327   0.326   0.318   0.270   0.214   0.213   0.219   0.219   0.233
 2020 036   233   294    66    285    617   1501    11   292   120    0.55   0.0   0.0   0.00   0.302   0.313   0.310   0.309   0.262   0.214   0.213   0.219   0.219   0.233
 2020 037   234   290    62    285    617   1501    11   292   120    0.21   0.0   0.0   0.00   0.284   0.297   0.297   0.297   0.255   0.214   0.213   0.219   0.219   0.233
 2020 038   235   286    58    285    617   1504    11   292   120    1.84   0.0   0.0   0.00   0.278   0.279   0.281   0.283   0.250   0.214   0.213   0.218   0.219   0.233
 2020 039   236   281    53    285    617   1504    11   292   120    1.58   0.0   0.0   0.00   0.264   0.258   0.264   0.267   0.247   0.213   0.212   0.218   0.218   0.232
 2020 040   237   277    49    285    617   1504    11   292   120    1.30   0.0   0.0   0.00   0.244   0.247   0.250   0.251   0.243   0.213   0.212   0.218   0.218   0.232
 2020 041   238   301    73    285    617   1504    12   320   120    0.95   0.0   0.0   0.00   0.358   0.354   0.344   0.313   0.249   0.212   0.212   0.217   0.218   0.232
 2020 042   239   297    69    285    617   1506    12   320   120    1.83   0.0   0.0   0.00   0.327   0.329   0.328   0.319   0.268   0.212   0.211   0.217   0.217   0.231
 2020 043   240   293    65    285    617   1506    12   320   120    1.50   0.0   0.0   0.00   0.310   0.314   0.310   0.309   0.262   0.212   0.211   0.217   0.217   0.231
 2020 044   241   289    61    285    617   1506    12   320   120    1.15   0.0   0.0   0.00   0.291   0.298   0.296   0.296   0.255   0.212   0.211   0.217   0.217   0.231
 2020 045   242   284    56    285    617   1506    12   320   120    0.75   0.0   0.0   0.00   0.268   0.277   0.279   0.281   0.250   0.212   0.211   0.217   0.217   0.231
 2020 046   243   279    50    285    617   1506    12   320   120    0.46   0.0   0.0   0.00   0.245   0.257   0.262   0.265   0.246   0.212   0.211   0.217   0.217   0.231
 2020 047   244   300    72    285    617   1506    13   346   120    0.11   0.0   0.0   0.00   0.364   0.352   0.339   0.305   0.253   0.211   0.211   0.216   0.217   0.230
 2020 048   245   295    67    285    617   1506    13   346   120    0.03   0.0   0.0   0.00   0.321   0.323   0.312   0.306   0.289   0.211   0.210   0.216   0.216   0.230
 2020 049   246   291    63    285    617   1506    13   346   120    0.01   0.0   0.0   0.00   0.302   0.308   0.298   0.294   0.278   0.211   0.210   0.216   0.216   0.230
 2020 050   247   286    58    285    617   1506    13   346   120    0.01   0.0   0.0   0.00   0.280   0.290   0.284   0.281   0.266   0.211   0.210   0.216   0.216   0.230
 2020 051   248   281    53    285    617   1507    13   346   120    0.27   0.0   0.0   0.00   0.259   0.273   0.269   0.268   0.256   0.211   0.210   0.216   0.216   0.230
 2020 052   249   276    48    285    617   1507    13   346   120    0.07   0.0   0.0   0.00   0.247   0.253   0.252   0.253   0.250   0.210   0.210   0.216   0.216   0.230
 2020 053   250   298    70    285    617   1507    14   374   120    0.02   0.0   0.0   0.00   0.355   0.348   0.343   0.309   0.248   0.210   0.209   0.215   0.215   0.229
 2020 054   251   293    65    285    617   1507    14   374   120    0.72   0.0   0.0   0.00   0.316   0.321   0.319   0.311   0.258   0.210   0.209   0.215   0.215   0.229
 2020 055   252   288    60    285    617   1508    14   374   120    1.04   0.0   0.0   0.00   0.296   0.302   0.303   0.296   0.252   0.209   0.209   0.215   0.215   0.229
 2020 056   253   283    55    285    617   1508    14   374   120    0.70   0.0   0.0   0.00   0.275   0.284   0.288   0.283   0.248   0.209   0.209   0.215   0.215   0.229
 2020 057   254   279    51    285    617   1508    14   374   120    0.34   0.0   0.0   0.00   0.255   0.267   0.273   0.269   0.246   0.209   0.209   0.215   0.215   0.228
 2020 058   255   274    46    285    617   1508    14   374   120    0.08   0.0   0.0   0.00   0.244   0.246   0.253   0.251   0.243   0.209   0.209   0.214   0.215   0.228
 2020 059   256   297    69    285    617   1508    15   402   120    0.02   0.0   0.0   0.00   0.354   0.353   0.337   0.310   0.248   0.208   0.208   0.214   0.214   0.228
 2020 060   257   291    63    285    617   1508    15   402   120    0.28   0.0   0.0   0.00   0.313   0.321   0.318   0.310   0.258   0.208   0.208   0.214   0.214   0.227
 2020 061   258   286    58    285    617   1508    15   402   120    0.07   0.0   0.0   0.00   0.291   0.302   0.302   0.296   0.252   0.208   0.208   0.213   0.214   0.227
 2020 062   259   282    54    285    617   1510    15   402   120    1.63   0.0   0.0   0.00   0.273   0.284   0.286   0.282   0.248   0.208   0.208   0.213   0.214   0.227
 2020 063   260   277    48    285    617   1511    15   402   120    1.46   0.0   0.0   0.00   0.250   0.263   0.269   0.266   0.245   0.208   0.208   0.213   0.213   0.227
 2020 064   261   271    43    285    617   1511    15   402   120    0.94   0.0   0.0   0.00   0.239   0.240   0.240   0.245   0.241   0.207   0.207   0.213   0.213   0.227
 2020 065   262   297    69    285    617   1511    16   432   120    0.42   0.0   0.0   0.00   0.357   0.355   0.348   0.314   0.246   0.207   0.207   0.212   0.213   0.226
 2020 066   263   292    64    285    617   1511    16   432   120    0.10   0.0   0.0   0.00   0.317   0.323   0.314   0.305   0.298   0.207   0.207   0.212   0.213   0.226
 2020 067   264   287    58    285    617   1511    16   432   120    0.03   0.0   0.0   0.00   0.295   0.305   0.298   0.291   0.285   0.207   0.207   0.212   0.212   0.226
 2020 068   265   281    53    285    617   1511    16   432   120    0.01   0.0   0.0   0.00   0.272   0.286   0.282   0.277   0.272   0.206   0.206   0.212   0.212   0.226
 2020 069   266   275    47    285    617   1511    16   432   120    0.01   0.0   0.0   0.00   0.245   0.265   0.264   0.261   0.258   0.206   0.206   0.212   0.212   0.226
 2020 070   267   270    42    285    617   1511    16   432   120    0.00   0.0   0.0   0.00   0.235   0.239   0.244   0.247   0.247   0.206   0.206   0.212   0.212   0.225
 2020 071   268   295    67    285    617   1511    17   462   120    0.00   0.0   0.0   0.00   0.358   0.356   0.344   0.310   0.243   0.205   0.206   0.211   0.211   0.225
 2020 072   269   291    62    285    617   1511    17   462   120    0.36   0.0   0.0   0.00   0.321   0.327   0.326   0.317   0.260   0.205   0.205   0.211   0.211   0.225
 2020 073   270   286    58    285    617   1511    17   462   120    0.09   0.0   0.0   0.00   0.301   0.310   0.308   0.307   0.255   0.205   0.205   0.211   0.211   0.224
 2020 074   271   282    54    285    617   1511    17   462   120    0.02   0.0   0.0   0.00   0.282   0.294   0.294   0.295   0.251   0.205   0.205   0.211   0.211   0.224
 2020 075   272   277    49    285    617   1511    17   462   120    0.01   0.0   0.0   0.00   0.258   0.275   0.278   0.280   0.247   0.205   0.205   0.211   0.211   0.224
 2020 076   273   272    44    285    617   1511    17   462   120    0.00   0.0   0.0   0.00   0.244   0.253   0.259   0.263   0.244   0.205   0.205   0.211   0.211   0.224
 2020 077   274   293    65    285    617   1511    18   489   120    0.00   0.0   0.0   0.00   0.359   0.351   0.335   0.300   0.251   0.205   0.205   0.210   0.211   0.224
 2020 078   275   288    60    285    617   1511    18   489   120    0.00   0.0   0.0   0.00   0.317   0.321   0.309   0.305   0.274   0.204   0.205   0.210   0.210   0.224
 2020 079   276   283    55    285    617   1511    18   489   120    0.00   0.0   0.0   0.00   0.293   0.302   0.293   0.291   0.261   0.204   0.205   0.210   0.210   0.224
 2020 080   277   278    50    285    617   1511    18   489   120    0.18   0.0   0.0   0.00   0.268   0.283   0.276   0.276   0.254   0.204   0.204   0.210   0.210   0.224
 2020 081   278   272    44    285    617   1511    18   489   120    0.05   0.0   0.0   0.00   0.244   0.262   0.259   0.260   0.249   0.204   0.204   0.210   0.210   0.223
 2020 082   279   293    65    285    617   1511    19   515   120    0.01   0.0   0.0   0.00   0.362   0.344   0.343   0.310   0.252   0.204   0.204   0.210   0.210   0.223
 2020 083   280   295    67    285    617   1519    19   515   120    2.00   0.0   0.0   0.00   0.350   0.340   0.343   0.327   0.288   0.204   0.204   0.210   0.210   0.223
 2020 084   281   292    64    285    617   1521    19   515   120    1.46   0.0   0.0   0.00   0.332   0.326   0.323   0.321   0.301   0.204   0.204   0.209   0.210   0.223
 2020 085   282   287    59    285    617   1521    19   515   120    0.96   0.0   0.0   0.00   0.314   0.311   0.310   0.309   0.290   0.204   0.204   0.209   0.210   0.223
 2020 086   283   282    54    285    617   1521    19   515   120    0.54   0.0   0.0   0.00   0.294   0.293   0.295   0.296   0.278   0.203   0.204   0.209   0.210   0.223
 2020 087   284   277    49    285    617   1521    19   515   120    0.12   0.0   0.0   0.00   0.272   0.274   0.279   0.281   0.265   0.203   0.204   0.209   0.210   0.223
 2020 088   285   272    44    285    617   1521    19   515   120    0.03   0.0   0.0   0.00   0.249   0.254   0.262   0.266   0.255   0.203   0.204   0.209   0.209   0.223
 2020 089   286   292    64    285    617   1521    20   541   120    0.01   0.0   0.0   0.00   0.358   0.353   0.334   0.298   0.252   0.203   0.204   0.209   0.209   0.222
 2020 090   287   287    59    285    617   1521    20   541   120    0.01   0.0   0.0   0.00   0.316   0.321   0.308   0.305   0.276   0.203   0.203   0.209   0.209   0.222
 2020 091   288   302    74    285    617   1543    20   541   120    2.04   0.0   0.0   0.00   0.352   0.352   0.344   0.346   0.338   0.277   0.203   0.209   0.209   0.222
 2020 092   289   298    70    285    617   1543    20   541   120    1.64   0.0   0.0   0.00   0.321   0.326   0.316   0.318   0.309   0.322   0.235   0.209   0.209   0.222
 2020 093   290   292    64    285    617   1543    20   541   120    1.26   0.0   0.0   0.00   0.299   0.307   0.300   0.303   0.296   0.312   0.234   0.209   0.209   0.222
 2020 094   291   287    59    285    617   1543    20   541   120    0.83   0.0   0.0   0.00   0.280   0.291   0.286   0.291   0.285   0.303   0.234   0.208   0.209   0.222
 2020 095   292   282    54    285    617   1543    20   541   120    0.47   0.0   0.0   0.00   0.262   0.275   0.272   0.278   0.273   0.294   0.233   0.208   0.209   0.222
 2020 096   293   276    48    285    617   1543    20   541   120    0.11   0.0   0.0   0.00   0.247   0.255   0.255   0.263   0.259   0.283   0.233   0.208   0.209   0.222
 2020 097   294   298    70    285    617   1546    21   566   120    2.07   0.0   0.0   0.00   0.363   0.355   0.347   0.308   0.257   0.264   0.231   0.208   0.208   0.222
 2020 098   295   292    64    285    617   1546    21   566   120    1.71   0.0   0.0   0.00   0.317   0.321   0.312   0.304   0.302   0.256   0.231   0.208   0.208   0.221
 2020 099   296   287    59    285    617   1546    21   566   120    1.42   0.0   0.0   0.00   0.299   0.305   0.298   0.292   0.291   0.253   0.230   0.208   0.208   0.221
 2020 100   297   283    55    285    617   1546    21   566   120    1.14   0.0   0.0   0.00   0.280   0.289   0.284   0.279   0.280   0.250   0.230   0.208   0.208   0.221
 2020 101   298   302    74    285    617   1571    21   566   120    2.07   0.0   0.0   0.00   0.350   0.350   0.343   0.345   0.316   0.282   0.229   0.208   0.208   0.221
 2020 102   299   298    70    285    617   1573    21   566   120    2.15   0.0   0.0   0.00   0.331   0.330   0.328   0.330   0.316   0.303   0.229   0.208   0.208   0.221
 2020 103   300   292    64    285    617   1573    21   566   120    2.04   0.0   0.0   0.00   0.310   0.311   0.307   0.311   0.302   0.303   0.228   0.208   0.208   0.221
 2020 104   301   287    59    285    617   1573    21   566   120    1.72   0.0   0.0   0.00   0.290   0.293   0.292   0.297   0.290   0.293   0.228   0.208   0.208   0.221
 2020 105   302   281    53    285    617   1573    21   566   120    1.39   0.0   0.0   0.00   0.268   0.274   0.275   0.282   0.276   0.282   0.228   0.208   0.208   0.221
 2020 106   303   276    48    285    617   1573    21   566   120    1.06   0.0   0.0   0.00   0.249   0.257   0.261   0.269   0.264   0.273   0.227   0.208   0.208   0.221
 2020 107   304   271    43    285    617   1573    21   566   120    0.71   0.0   0.0   0.00   0.240   0.244   0.247   0.247   0.250   0.256   0.226   0.207   0.208   0.221
 2020 108   305   295    66    285    617   1573    22   595   120    0.45   0.0   0.0   0.00   0.359   0.355   0.345   0.313   0.245   0.239   0.225   0.207   0.207   0.220
 2020 109   306   290    62    285    617   1573    22   595   120    0.15   0.0   0.0   0.00   0.321   0.325   0.314   0.307   0.295   0.238   0.224   0.207   0.207   0.220
 2020 110   307   286    58    285    617   1573    22   595   120    0.04   0.0   0.0   0.00   0.302   0.309   0.301   0.295   0.283   0.237   0.224   0.207   0.207   0.220
 2020 111   308   281    53    285    617   1573    22   595   120    0.01   0.0   0.0   0.00   0.283   0.293   0.287   0.282   0.272   0.236   0.224   0.207   0.207   0.220
 2020 112   309   276    48    285    617   1573    22   595   120    0.01   0.0   0.0   0.00   0.260   0.274   0.271   0.268   0.259   0.235   0.223   0.207   0.207   0.220
 2020 113   310   271    43    285    617   1573    22   595   120    0.01   0.0   0.0   0.00   0.247   0.255   0.254   0.254   0.252   0.234   0.223   0.207   0.207   0.220
 2020 114   311   293    65    285    617   1574    23   622   120    0.47   0.0   0.0   0.00   0.358   0.350   0.344   0.311   0.250   0.232   0.222   0.207   0.207   0.220
 2020 115   312   288    60    285    617   1574    23   622   120    0.13   0.0   0.0   0.00   0.319   0.322   0.312   0.306   0.289   0.231   0.222   0.207   0.207   0.220
 2020 116   313   288    60    285    617   1580    23   622   120    2.27   0.0   0.0   0.00   0.340   0.321   0.306   0.293   0.278   0.231   0.222   0.207   0.207   0.220
 2020 117   314   288    60    285    617   1585    23   622   120    2.03   0.0   0.0   0.00   0.352   0.324   0.309   0.285   0.266   0.230   0.221   0.207   0.207   0.220
 2020 118   315   284    55    285    617   1585    23   622   120    2.20   0.0   0.0   0.00   0.322   0.315   0.295   0.273   0.257   0.230   0.221   0.207   0.207   0.219
 2020 119   316   279    51    285    617   1586    23   622   120    2.16   0.0   0.0   0.00   0.300   0.296   0.279   0.259   0.251   0.229   0.221   0.206   0.207   0.219
 2020 120   317   278    50    285    617   1590    23   622   120    2.29   0.0   0.0   0.00   0.329   0.292   0.261   0.251   0.247   0.229   0.221   0.206   0.207   0.219
 2020 121   318   286    58    285    617   1603    23   622   120    2.35   0.0   0.0   0.00   0.346   0.335   0.317   0.259   0.244   0.228   0.220   0.206   0.207   0.219
 2020 122   319   291    63    285    617   1613    23   622   120    2.25   0.0   0.0   0.00   0.348   0.343   0.338   0.314   0.244   0.227   0.220   0.206   0.207   0.219
 2020 123   320   286    58    285    617   1613    23   622   120    1.86   0.0   0.0   0.00   0.316   0.320   0.311   0.306   0.268   0.227   0.220   0.206   0.206   0.219
 2020 124   321   287    59    285    617   1619    23   622   120    2.40   0.0   0.0   0.00   0.348   0.323   0.308   0.296   0.258   0.226   0.220   0.206   0.206   0.219
 2020 125   322   285    57    285    617   1622    23   622   120    2.36   0.0   0.0   0.00   0.343   0.321   0.307   0.282   0.252   0.226   0.219   0.206   0.206   0.219
 2020 126   323   281    52    285    617   1622    23   622   120    1.97   0.0   0.0   0.00   0.313   0.307   0.291   0.268   0.248   0.225   0.219   0.206   0.206   0.219
 2020 127   324   276    48    285    617   1622    23   622   120    1.60   0.0   0.0   0.00   0.291   0.287   0.275   0.254   0.245   0.225   0.219   0.206   0.206   0.219
 2020 128   325   272    43    285    617   1623    23   622   120    1.47   0.0   0.0   0.00   0.269   0.268   0.259   0.249   0.243   0.225   0.219   0.206   0.206   0.219
 2020 129   326   268    39    285    617   1623    23   622   120    1.16   0.0   0.0   0.00   0.246   0.248   0.250   0.245   0.241   0.224   0.218   0.206   0.206   0.219
 2020 130   327   297    69    285    617   1630    24   651   120    2.35   0.0   0.0   0.00   0.354   0.350   0.341   0.348   0.315   0.244   0.217   0.206   0.206   0.218
 2020 131   328   298    70    285    617   1635    24   651   120    2.50   0.0   0.0   0.00   0.354   0.339   0.339   0.339   0.321   0.282   0.217   0.206   0.206   0.218
 2020 132   329   294    66    285    617   1636    24   651   120    2.45   0.0   0.0   0.00   0.329   0.327   0.322   0.325   0.314   0.299   0.217   0.206   0.206   0.218
 2020 133   330   290    62    285    617   1636    24   651   120    2.12   0.0   0.0   0.00   0.313   0.313   0.310   0.311   0.302   0.297   0.217   0.206   0.206   0.218
 2020 134   331   287    59    285    617   1638    24   651   120    2.47   0.0   0.0   0.00   0.318   0.301   0.297   0.300   0.291   0.288   0.217   0.205   0.206   0.218
 2020 135   332   282    54    285    617   1638    24   651   120    2.10   0.0   0.0   0.00   0.301   0.286   0.285   0.288   0.281   0.279   0.217   0.205   0.206   0.218
 2020 136   333   289    61    285    617   1651    24   651   120    2.55   0.0   0.0   0.00   0.355   0.331   0.309   0.277   0.271   0.271   0.216   0.205   0.206   0.218
 2020 137   334   285    57    285    617   1651    24   651   120    2.51   0.0   0.0   0.00   0.328   0.323   0.305   0.266   0.260   0.263   0.216   0.205   0.206   0.218
 2020 138   335   281    53    285    617   1651    24   651   120    2.11   0.0   0.0   0.00   0.309   0.306   0.290   0.255   0.254   0.256   0.216   0.205   0.206   0.218
 2020 139   336   278    50    285    617   1653    24   651   120    2.60   0.0   0.0   0.00   0.311   0.290   0.276   0.251   0.250   0.253   0.216   0.205   0.206   0.218
 2020 140   337   274    46    285    617   1654    24   651   120    2.50   0.0   0.0   0.00   0.291   0.272   0.261   0.247   0.247   0.250   0.216   0.205   0.205   0.218
 2020 141   338   277    49    285    617   1661    24   651   120    2.59   0.0   0.0   0.00   0.349   0.287   0.251   0.244   0.244   0.247   0.216   0.205   0.205   0.218
 2020 142   339   312    83    285    617   1700    24   651   120    2.62   0.0   0.0   0.00   0.347   0.348   0.354   0.356   0.350   0.363   0.337   0.209   0.205   0.218
 2020 143   340   316    88    285    617   1709    24   651   120    2.57   0.0   0.0   0.00   0.358   0.353   0.349   0.350   0.344   0.358   0.359   0.232   0.205   0.218
 2020 144   341   315    87    285    617   1713    24   651   120    2.56   0.0   0.0   0.00   0.354   0.338   0.339   0.340   0.332   0.353   0.353   0.250   0.205   0.218
 2020 145   342   322    94    285    617   1724    24   651   120    2.65   0.0   0.0   0.00   0.358   0.357   0.349   0.350   0.343   0.358   0.355   0.268   0.205   0.218
 2020 146   343   318    90    285    617   1724    24   651   120    2.66   0.0   0.0   0.00   0.330   0.335   0.335   0.338   0.331   0.352   0.352   0.282   0.205   0.217
 2020 147   344   314    85    285    617   1725    24   651   120    2.64   0.0   0.0   0.00   0.319   0.325   0.315   0.321   0.315   0.340   0.343   0.290   0.205   0.217
 2020 148   345   309    81    285    617   1725    24   651   120    2.68   0.0   0.0   0.00   0.307   0.314   0.306   0.312   0.304   0.328   0.332   0.291   0.205   0.217
 2020 149   346   332   104    285    617   1752    24   651   120    2.59   0.0   0.0   0.00   0.358   0.357   0.349   0.349   0.344   0.358   0.359   0.324   0.220   0.217
 2020 150   347   338   110    285    617   1763    24   651   120    2.68   0.0   0.0   0.00   0.358   0.357   0.349   0.350   0.344   0.358   0.359   0.332   0.248   0.217
 2020 151   348   335   107    285    617   1764    24   651   120    2.74   0.0   0.0   0.00   0.341   0.338   0.338   0.340   0.333   0.353   0.354   0.327   0.267   0.217
 2020 152   349   332   104    285    617   1766    24   651   120    2.67   0.0   0.0   0.00   0.334   0.330   0.324   0.327   0.320   0.343   0.346   0.324   0.278   0.217
 2020 153   350   397   169    290    617   1840    24   651   120    2.81   0.0   0.0   5.60   0.362   0.360   0.351   0.352   0.346   0.360   0.361   0.345   0.346   0.342
 2020 154   351   397   169    290    617   1845    24   651   120    2.69   0.0   0.0   0.00   0.361   0.349   0.351   0.351   0.341   0.359   0.359   0.333   0.337   0.334
 2020 155   352   395   167    290    617   1848    24   651   120    2.78   0.0   0.0   0.00   0.356   0.340   0.341   0.343   0.334   0.354   0.355   0.328   0.330   0.328
 2020 156   353   387   159    290    620   1848    24   651   120    2.56   0.0   0.0   0.00   0.330   0.329   0.321   0.322   0.313   0.334   0.335   0.320   0.321   0.322
 2020 157   354   383   155    290    620   1849    24   651   120    2.79   0.0   0.0   0.00   0.322   0.321   0.313   0.315   0.306   0.326   0.328   0.319   0.319   0.320
 2020 158   355   381   153    290    620   1852    24   651   120    2.92   0.0   0.0   0.00   0.338   0.325   0.307   0.309   0.301   0.322   0.324   0.317   0.316   0.319
 2020 159   356   377   149    290    620   1852    24   651   120    2.70   0.0   0.0   0.00   0.323   0.318   0.299   0.302   0.295   0.316   0.320   0.314   0.314   0.317
 2020 160   357   392   164    290    620   1871    24   651   120    2.88   0.0   0.0   0.00   0.363   0.361   0.352   0.353   0.342   0.345   0.335   0.317   0.311   0.316
 2020 161   358   386   158    290    622   1871    24   651   120    2.67   0.0   0.0   0.00   0.332   0.336   0.324   0.325   0.315   0.330   0.328   0.318   0.318   0.319
 2020 162   359   382   154    290    622   1872    24   651   120    2.97   0.0   0.0   0.00   0.325   0.328   0.316   0.318   0.309   0.328   0.328   0.315   0.315   0.317
 2020 163   360   379   151    290    622   1872    24   651   120    2.75   0.0   0.0   0.00   0.316   0.321   0.310   0.312   0.303   0.324   0.325   0.313   0.313   0.316
 2020 164   361   375   147    290    622   1872    24   651   120    2.53   0.0   0.0   0.00   0.307   0.313   0.303   0.306   0.298   0.319   0.321   0.310   0.311   0.315
 2020 165   362   408   180    290    623   1912    24   651   120    3.05   0.0   0.0   0.00   0.363   0.361   0.352   0.353   0.347   0.361   0.361   0.346   0.342   0.326
 2020 166   363   391   163    290    637   1912    24   651   120    2.79   0.0   0.0   0.00   0.333   0.337   0.325   0.326   0.318   0.336   0.337   0.327   0.325   0.321
 2020 167   364   386   158    290    638   1912    24   651   120    2.64   0.0   0.0   0.00   0.324   0.329   0.315   0.317   0.309   0.331   0.332   0.321   0.322   0.321
 2020 168   365   382   154    290    638   1912    24   651   120    2.80   0.0   0.0   0.00   0.314   0.320   0.308   0.311   0.303   0.325   0.327   0.318   0.319   0.319
 2020 169   366   380   152    290    638   1915    24   651   120    3.15   0.0   0.0   0.00   0.331   0.319   0.302   0.305   0.298   0.321   0.324   0.316   0.317   0.318
 2020 170   367   380   152    290    638   1919    24   651   120    3.18   0.0   0.0   0.00   0.353   0.330   0.303   0.299   0.293   0.316   0.320   0.313   0.314   0.317
 2020 171   368   376   148    290    638   1920    24   651   120    3.21   0.0   0.0   0.00   0.337   0.329   0.303   0.293   0.287   0.311   0.315   0.311   0.312   0.315
 2020 172   369   372   144    290    638   1920    24   651   120    2.99   0.0   0.0   0.00   0.324   0.323   0.296   0.286   0.281   0.306   0.311   0.308   0.309   0.314
 2020 173   370   370   142    290    638   1922    24   651   120    3.34   0.0   0.0   0.00   0.329   0.321   0.290   0.281   0.276   0.302   0.307   0.306   0.307   0.313
 2020 174   371   372   144    290    638   1929    24   651   120    3.28   0.0   0.0   0.00   0.363   0.338   0.317   0.280   0.270   0.297   0.303   0.303   0.304   0.311
 2020 175   372   368   140    290    638   1929    24   651   120    3.18   0.0   0.0   0.00   0.335   0.332   0.318   0.282   0.265   0.292   0.299   0.300   0.302   0.310
 2020 176   373   367   139    290    638   1932    24   651   120    3.40   0.0   0.0   0.00   0.346   0.333   0.319   0.285   0.261   0.288   0.295   0.298   0.299   0.308
 2020 177   374   363   135    290    638   1932    24   651   120    3.16   0.0   0.0   0.00   0.326   0.327   0.313   0.281   0.257   0.283   0.291   0.295   0.297   0.307
 2020 178   375   359   131    290    638   1932    24   651   120    3.19   0.0   0.0   0.00   0.318   0.320   0.307   0.275   0.255   0.278   0.287   0.293   0.294   0.306
 2020 179   376   355   127    290    638   1932    24   651   120    2.91   0.0   0.0   0.00   0.309   0.312   0.301   0.269   0.253   0.274   0.283   0.290   0.292   0.304
 2020 180   377   361   133    290    638   1943    24   651   120    3.48   0.0   0.0   0.00   0.363   0.343   0.326   0.286   0.251   0.269   0.279   0.287   0.289   0.303
 2020 181   378   360   132    290    638   1945    24   651   120    3.55   0.0   0.0   0.00   0.356   0.340   0.331   0.310   0.250   0.265   0.275   0.285   0.287   0.302
 2020 182   379   362   133    290    638   1951    24   651   120    3.47   0.0   0.0   0.00   0.364   0.344   0.339   0.327   0.271   0.262   0.271   0.283   0.285   0.301
 2020 183   380   358   130    290    638   1951    24   651   120    3.49   0.0   0.0   0.00   0.335   0.334   0.329   0.326   0.288   0.259   0.267   0.280   0.282   0.299
 2020 184   381   354   126    290    638   1951    24   651   120    3.55   0.0   0.0   0.00   0.323   0.328   0.317   0.318   0.290   0.256   0.263   0.277   0.279   0.298
 2020 185   382   371   143    290    638   1973    24   651   120    3.55   0.0   0.0   0.00   0.364   0.362   0.353   0.353   0.347   0.353   0.306   0.275   0.277   0.297
 2020 186   383   372   144    290    638   1977    24   651   120    3.67   0.0   0.0   0.00   0.364   0.351   0.353   0.353   0.343   0.359   0.339   0.280   0.275   0.295
 2020 187   384   370   142    290    638   1979    24   651   120    3.70   0.0   0.0   0.00   0.354   0.342   0.343   0.345   0.336   0.356   0.349   0.292   0.273   0.294
 2020 188   385   367   138    290    638   1980    24   651   120    3.68   0.0   0.0   0.00   0.334   0.333   0.329   0.333   0.326   0.348   0.348   0.302   0.270   0.293
 2020 189   386   366   138    290    638   1983    24   651   120    3.67   0.0   0.0   0.00   0.351   0.335   0.325   0.326   0.318   0.340   0.342   0.309   0.268   0.292
 2020 190   387   362   134    290    638   1983    24   651   120    3.44   0.0   0.0   0.00   0.329   0.328   0.316   0.317   0.308   0.329   0.330   0.318   0.266   0.290
 2020 191   388   359   130    290    638   1983    24   651   120    3.28   0.0   0.0   0.00   0.321   0.321   0.310   0.311   0.303   0.325   0.327   0.315   0.264   0.289
 2020 192   389   416   187    293    641   2051    24   651   118    3.88   0.0   0.0   2.67   0.364   0.362   0.353   0.353   0.347   0.361   0.361   0.346   0.346   0.347
 2020 193   390   406   178    293    647   2052    24   651   116    3.83   0.0   0.0   0.00   0.341   0.342   0.344   0.345   0.338   0.358   0.358   0.334   0.337   0.336
 2020 194   391   390   162    293    660   2052    24   651   119    3.64   0.0   0.0   0.00   0.326   0.331   0.323   0.324   0.315   0.336   0.336   0.322   0.324   0.324
 2020 195   392   385   157    293    661   2052    24   651   120    3.43   0.0   0.0   0.00   0.318   0.324   0.317   0.316   0.307   0.328   0.329   0.320   0.319   0.320
 2020 196   393   390   162    293    661   2061    24   651   120    3.99   0.0   0.0   0.00   0.364   0.345   0.335   0.327   0.312   0.330   0.328   0.319   0.317   0.319
 2020 197   394   385   157    293    663   2061    24   651   120    3.76   0.0   0.0   0.00   0.335   0.333   0.320   0.318   0.307   0.326   0.327   0.318   0.318   0.319
 2020 198   395   387   158    293    663   2066    24   651   120    4.09   0.0   0.0   0.00   0.364   0.338   0.326   0.322   0.309   0.328   0.323   0.316   0.316   0.318
 2020 199   396   385   156    293    663   2068    24   651   120    4.06   0.0   0.0   0.00   0.350   0.337   0.327   0.323   0.311   0.329   0.324   0.313   0.313   0.317
 2020 200   397   394   166    293    663   2081    24   651   120    4.09   0.0   0.0   0.00   0.363   0.361   0.353   0.353   0.345   0.351   0.341   0.319   0.311   0.315
 2020 201   398   396   168    293    663   2087    24   651   120    4.09   0.0   0.0   0.00   0.365   0.355   0.354   0.354   0.347   0.360   0.352   0.323   0.318   0.314
 2020 202   399   392   164    293    663   2087    24   651   120    4.11   0.0   0.0   0.00   0.337   0.339   0.340   0.343   0.336   0.357   0.354   0.325   0.322   0.317
 2020 203   400   387   158    293    665   2087    24   651   120    3.93   0.0   0.0   0.00   0.325   0.330   0.322   0.323   0.315   0.336   0.335   0.319   0.319   0.319
 2020 204   401   386   158    293    665   2091    24   651   120    4.22   0.0   0.0   0.00   0.348   0.333   0.320   0.320   0.310   0.331   0.331   0.320   0.317   0.318
 2020 205   402   382   154    293    665   2091    24   651   120    4.03   0.0   0.0   0.00   0.328   0.329   0.315   0.315   0.305   0.326   0.327   0.318   0.315   0.316
 2020 206   403   379   150    293    665   2091    24   651   120    4.33   0.0   0.0   0.00   0.321   0.322   0.309   0.310   0.301   0.322   0.324   0.315   0.313   0.315
 2020 207   404   375   147    293    665   2092    24   651   120    4.34   0.0   0.0   0.00   0.314   0.316   0.304   0.305   0.296   0.318   0.320   0.313   0.311   0.314
 2020 208   405   372   144    293    665   2092    24   651   120    4.24   0.0   0.0   0.00   0.306   0.309   0.298   0.300   0.292   0.314   0.317   0.311   0.308   0.313
 2020 209   406   369   141    293    665   2092    24   651   120    4.35   0.0   0.0   0.00   0.305   0.303   0.293   0.295   0.287   0.311   0.314   0.308   0.306   0.312

*DSSAT Cropping System Model Ver. 4.8.0.010 -develop  AUG 03, 2021 18:13:13

*RUN   2        : IITA-TMS-IBA30572         CSYCA048 UYAB1901    2
 MODEL          : CSYCA048 - Cassava
 EXPERIMENT     : UYAB1901 CS UYT_GXE
 DATA PATH      : C:\DSSAT48\CASSAVA\
 TREATMENT  2   : IITA-TMS-IBA30572         CSYCA048
  
!                                                                                                 Soil water content (mm3/mm3) by soil depth (cm):
!                                                                                                 0-5    5-15   15-20   20-25   25-30   30-35   35-40   40-55   55-70  70-120
@YEAR DOY   DAS  SWTD  SWXD   ROFC   DRNC   PREC  IR#C  IRRC  DTWT    MWTD  TDFD  TDFC   ROFD    SW1D    SW2D    SW3D    SW4D    SW5D    SW6D    SW7D    SW8D    SW9D    SW10
 2019 168     0   386   158      0      0      0     0     0     0    0.00   0.0   0.0   0.00   0.330   0.335   0.320   0.320   0.310   0.330   0.330   0.320   0.320   0.320
 2019 169     1   385   157      0      0      0     0     0    60    0.00   0.0   0.0   0.00   0.304   0.333   0.319   0.320   0.310   0.330   0.330   0.320   0.320   0.320
 2019 170     2   389   161      0      0     10     0     0   120    0.00   0.0   0.0   0.03   0.345   0.347   0.342   0.333   0.318   0.333   0.331   0.318   0.319   0.318
 2019 171     3   386   158      0      0     11     0     0   120    0.00   0.0   0.0   0.00   0.321   0.334   0.332   0.331   0.319   0.336   0.333   0.319   0.317   0.316
 2019 172     4   380   152      0      0     11     0     0   120    0.00   0.0   0.0   0.00   0.297   0.324   0.318   0.319   0.309   0.328   0.327   0.317   0.318   0.317
 2019 173     5   382   154      0      0     17     0     0   120    0.00   0.0   0.0   0.00   0.341   0.331   0.319   0.318   0.308   0.327   0.325   0.315   0.316   0.315
 2019 174     6   377   149      0      0     17     0     0   120    0.00   0.0   0.0   0.00   0.312   0.326   0.314   0.314   0.304   0.323   0.321   0.312   0.313   0.313
 2019 175     7   386   158      0      0     30     0     0   120    0.00   0.0   0.0   0.29   0.348   0.359   0.353   0.340   0.320   0.333   0.328   0.310   0.311   0.312
 2019 176     8   381   153      0      0     30     0     0   120    0.00   0.0   0.0   0.00   0.313   0.334   0.326   0.322   0.310   0.329   0.327   0.317   0.318   0.315
 2019 177     9   378   150      0      0     31     0     0   120    0.00   0.0   0.0   0.00   0.313   0.328   0.317   0.318   0.308   0.328   0.324   0.315   0.316   0.313
 2019 178    10   376   148      0      0     31     0     0   120    0.00   0.0   0.0   0.00   0.288   0.326   0.316   0.318   0.307   0.328   0.324   0.315   0.316   0.313
 2019 179    11   375   147      0      0     31     0     0   120    0.00   0.0   0.0   0.00   0.266   0.325   0.316   0.317   0.307   0.328   0.323   0.315   0.316   0.313
 2019 180    12   374   146      0      0     31     0     0   120    0.00   0.0   0.0   0.00   0.247   0.323   0.315   0.317   0.307   0.328   0.323   0.315   0.316   0.313
 2019 181    13   380   152      0      0     39     0     0   120    0.00   0.0   0.0   0.00   0.334   0.336   0.321   0.320   0.307   0.327   0.323   0.315   0.316   0.313
 2019 182    14   379   151      0      0     43     0     0   120    0.00   0.0   0.0   0.00   0.342   0.335   0.327   0.323   0.310   0.328   0.323   0.312   0.313   0.311
 2019 183    15   374   146      0      0     43     0     0   120    0.00   0.0   0.0   0.00   0.310   0.326   0.316   0.316   0.306   0.326   0.326   0.311   0.311   0.309
 2019 184    16   375   147      0      0     45     0     0   120    0.00   0.0   0.0   0.00   0.317   0.333   0.316   0.316   0.306   0.326   0.326   0.311   0.311   0.309
 2019 185    17   393   165      3      0     71     0     0   120    0.00   0.0   0.0   3.04   0.349   0.359   0.353   0.354   0.348   0.361   0.362   0.328   0.321   0.311
 2019 186    18   399   171      4      0     81     0     0   120    0.00   0.0   0.0   0.24   0.348   0.359   0.352   0.353   0.348   0.361   0.361   0.336   0.331   0.320
 2019 187    19   394   166      4      0     82     0     0   120    0.00   0.0   0.0   0.00   0.319   0.337   0.340   0.343   0.337   0.357   0.358   0.330   0.330   0.323
 2019 188    20   400   172      4      0     92     0     0   120    0.00   0.0   0.0   0.07   0.350   0.353   0.353   0.351   0.339   0.357   0.357   0.327   0.328   0.323
 2019 189    21   396   168      4      1     94     0     0   119    0.00   0.0   0.0   0.00   0.334   0.339   0.342   0.344   0.335   0.355   0.355   0.326   0.326   0.323
 2019 190    22   391   163      4      3     94     0     0   120    0.00   0.0   0.0   0.00   0.313   0.329   0.325   0.330   0.324   0.347   0.349   0.324   0.325   0.322
 2019 191    23   386   158      4      4     96     0     0   120    0.00   0.0   0.0   0.00   0.310   0.321   0.315   0.319   0.313   0.337   0.340   0.322   0.322   0.321
 2019 192    24   384   156      4      4     98     0     0   120    0.00   0.0   0.0   0.00   0.321   0.320   0.310   0.314   0.307   0.330   0.333   0.320   0.320   0.321
 2019 193    25   397   169      5      4    117     0     0   120    0.00   0.0   0.0   1.16   0.350   0.359   0.352   0.353   0.344   0.351   0.344   0.321   0.321   0.320
 2019 194    26   386   158      5     10    117     0     0   120    0.00   0.0   0.0   0.00   0.314   0.333   0.324   0.326   0.317   0.333   0.331   0.319   0.319   0.318
 2019 195    27   398   170      6     10    135     0     0   120    0.00   0.0   0.0   1.18   0.349   0.358   0.352   0.353   0.347   0.361   0.358   0.324   0.322   0.321
 2019 196    28   401   173      6     11    143     0     0   120    0.00   0.0   0.0   0.06   0.349   0.357   0.352   0.353   0.347   0.361   0.361   0.330   0.326   0.322
 2019 197    29   395   167      6     13    143     0     0   120    0.00   0.0   0.0   0.00   0.317   0.335   0.337   0.341   0.335   0.356   0.357   0.328   0.327   0.323
 2019 198    30   390   162      6     14    145     0     0   120    0.00   0.0   0.0   0.00   0.314   0.326   0.321   0.326   0.321   0.345   0.348   0.325   0.325   0.322
 2019 199    31   383   155      6     17    145     0     0   120    0.00   0.0   0.0   0.00   0.296   0.317   0.314   0.317   0.309   0.331   0.333   0.320   0.320   0.321
 2019 200    32   391   163      6     17    158     0     0   120    0.00   0.0   0.0   0.13   0.353   0.351   0.344   0.333   0.317   0.334   0.333   0.319   0.321   0.319
 2019 201    33   387   159      6     17    159     0     0   120    0.00   0.0   0.0   0.00   0.324   0.334   0.333   0.331   0.318   0.336   0.334   0.319   0.319   0.319
 2019 202    34   382   154      6     17    159     0     0   120    0.00   0.0   0.0   0.00   0.302   0.323   0.317   0.317   0.307   0.327   0.327   0.318   0.318   0.319
 2019 203    35   381   153      6     17    161     0     0   120    0.00   0.0   0.0   0.00   0.305   0.321   0.313   0.314   0.305   0.325   0.326   0.317   0.318   0.319
 2019 204    36   379   151      6     17    161     0     0   120    0.00   0.0   0.0   0.00   0.290   0.315   0.309   0.311   0.302   0.322   0.324   0.317   0.318   0.318
 2019 205    37   376   148      6     17    161     0     0   120    0.00   0.0   0.0   0.00   0.267   0.310   0.305   0.307   0.299   0.320   0.322   0.316   0.318   0.318
 2019 206    38   381   153      6     17    168     0     0   120    0.00   0.0   0.0   0.00   0.334   0.326   0.301   0.304   0.296   0.318   0.320   0.316   0.318   0.318
 2019 207    39   377   149      6     17    169     0     0   120    0.00   0.0   0.0   0.00   0.318   0.321   0.295   0.299   0.291   0.313   0.317   0.314   0.317   0.317
[...]
 2020 096   293   294    66    339    557   1543    16   430   120    0.07   0.0   0.0   0.00   0.224   0.296   0.296   0.298   0.292   0.315   0.318   0.217   0.208   0.225
 2020 097   294   293    65    339    557   1546    16   430   120    0.44   0.0   0.0   0.00   0.250   0.288   0.290   0.293   0.287   0.310   0.315   0.216   0.208   0.225
 2020 098   295   290    62    339    557   1546    16   430   120    0.29   0.0   0.0   0.00   0.230   0.279   0.283   0.287   0.282   0.306   0.311   0.216   0.208   0.225
 2020 099   296   287    59    339    557   1546    16   430   120    0.19   0.0   0.0   0.00   0.213   0.271   0.277   0.281   0.277   0.302   0.308   0.216   0.207   0.225
 2020 100   297   284    56    339    557   1546    16   430   120    0.13   0.0   0.0   0.00   0.198   0.263   0.271   0.276   0.272   0.297   0.306   0.216   0.207   0.225
 2020 101   298   330   102    339    557   1571    17   455   120    0.45   0.0   0.0   0.00   0.358   0.357   0.347   0.348   0.343   0.357   0.359   0.298   0.207   0.224
 2020 102   299   328   100    339    557   1573    17   455   120    0.32   0.0   0.0   0.00   0.337   0.339   0.340   0.341   0.334   0.354   0.355   0.313   0.206   0.223
 2020 103   300   323    95    339    557   1573    17   455   120    0.33   0.0   0.0   0.00   0.312   0.325   0.321   0.326   0.320   0.343   0.346   0.318   0.209   0.222
 2020 104   301   318    90    339    557   1573    17   455   120    0.22   0.0   0.0   0.00   0.293   0.314   0.312   0.315   0.307   0.328   0.331   0.316   0.216   0.222
 2020 105   302   312    84    339    557   1573    17   455   120    0.14   0.0   0.0   0.00   0.272   0.302   0.303   0.306   0.299   0.322   0.325   0.312   0.215   0.221
 2020 106   303   309    81    339    557   1573    17   455   120    0.10   0.0   0.0   0.00   0.245   0.294   0.297   0.301   0.295   0.318   0.323   0.310   0.215   0.221
 2020 107   304   305    77    339    557   1573    17   455   120    0.06   0.0   0.0   0.00   0.226   0.286   0.291   0.296   0.290   0.313   0.320   0.307   0.215   0.221
 2020 108   305   302    74    339    557   1573    17   455   120    0.08   0.0   0.0   0.00   0.211   0.277   0.284   0.290   0.285   0.309   0.316   0.305   0.215   0.221
 2020 109   306   299    71    339    557   1573    17   455   120    0.05   0.0   0.0   0.00   0.196   0.270   0.279   0.285   0.280   0.305   0.313   0.303   0.215   0.221
 2020 110   307   296    68    339    557   1573    17   455   120    0.04   0.0   0.0   0.00   0.183   0.262   0.273   0.280   0.275   0.301   0.310   0.300   0.215   0.221
 2020 111   308   318    90    339    557   1573    18   481   120    0.02   0.0   0.0   0.00   0.351   0.361   0.337   0.316   0.273   0.296   0.307   0.297   0.215   0.220
 2020 112   309   314    86    339    557   1573    18   481   120    0.02   0.0   0.0   0.00   0.317   0.332   0.317   0.312   0.303   0.307   0.302   0.294   0.214   0.220
 2020 113   310   310    82    339    557   1573    18   481   120    0.01   0.0   0.0   0.00   0.286   0.325   0.312   0.307   0.299   0.303   0.299   0.292   0.214   0.220
 2020 114   311   306    78    339    557   1574    18   481   120    0.21   0.0   0.0   0.00   0.264   0.317   0.306   0.302   0.294   0.299   0.296   0.289   0.214   0.220
 2020 115   312   303    75    339    557   1574    18   481   120    0.14   0.0   0.0   0.00   0.240   0.308   0.299   0.297   0.289   0.295   0.293   0.287   0.214   0.220
 2020 116   313   305    77    339    557   1580    18   481   120    0.46   0.0   0.0   0.00   0.318   0.307   0.293   0.291   0.284   0.290   0.290   0.284   0.214   0.220
 2020 117   314   305    77    339    557   1585    18   481   120    0.32   0.0   0.0   0.00   0.347   0.322   0.285   0.284   0.278   0.284   0.285   0.281   0.213   0.219
 2020 118   315   302    74    339    557   1585    18   481   120    0.41   0.0   0.0   0.00   0.323   0.319   0.278   0.278   0.272   0.279   0.281   0.278   0.212   0.219
 2020 119   316   298    70    339    557   1586    18   481   120    0.39   0.0   0.0   0.00   0.294   0.310   0.271   0.272   0.267   0.275   0.278   0.275   0.212   0.219
 2020 120   317   298    70    339    557   1590    18   481   120    0.44   0.0   0.0   0.00   0.321   0.318   0.265   0.266   0.263   0.270   0.275   0.273   0.212   0.218
 2020 121   318   307    79    339    557   1603    18   481   120    0.42   0.0   0.0   0.00   0.354   0.354   0.334   0.297   0.259   0.265   0.270   0.269   0.212   0.218
 2020 122   319   312    84    339    557   1613    18   481   120    0.44   0.0   0.0   0.00   0.353   0.356   0.349   0.344   0.309   0.267   0.266   0.266   0.211   0.217
 2020 123   320   307    79    339    557   1613    18   481   120    0.29   0.0   0.0   0.00   0.320   0.331   0.321   0.321   0.303   0.325   0.276   0.263   0.211   0.217
 2020 124   321   309    81    339    557   1619    18   481   120    0.49   0.0   0.0   0.00   0.355   0.334   0.325   0.321   0.307   0.325   0.271   0.261   0.210   0.216
 2020 125   322   308    80    339    557   1622    18   481   120    0.37   0.0   0.0   0.00   0.350   0.333   0.324   0.321   0.308   0.325   0.269   0.259   0.209   0.216
 2020 126   323   303    75    339    557   1622    18   481   120    0.24   0.0   0.0   0.00   0.319   0.323   0.312   0.313   0.302   0.323   0.269   0.257   0.209   0.215
 2020 127   324   299    71    339    557   1622    18   481   120    0.16   0.0   0.0   0.00   0.285   0.313   0.304   0.306   0.296   0.318   0.266   0.256   0.209   0.215
 2020 128   325   295    67    339    557   1623    18   481   120    0.19   0.0   0.0   0.00   0.258   0.304   0.297   0.300   0.291   0.313   0.264   0.255   0.209   0.215
 2020 129   326   292    64    339    557   1623    18   481   120    0.12   0.0   0.0   0.00   0.235   0.294   0.290   0.293   0.285   0.308   0.261   0.254   0.209   0.215
 2020 130   327   294    66    339    557   1630    18   481   120    0.46   0.0   0.0   0.00   0.327   0.296   0.280   0.285   0.277   0.301   0.259   0.253   0.209   0.215
 2020 131   328   296    68    339    557   1635    18   481   120    0.32   0.0   0.0   0.00   0.354   0.316   0.272   0.277   0.270   0.295   0.257   0.252   0.208   0.215
 2020 132   329   292    64    339    557   1636    18   481   120    0.49   0.0   0.0   0.00   0.328   0.315   0.263   0.269   0.263   0.288   0.254   0.250   0.208   0.214
 2020 133   330   288    60    339    557   1636    18   481   120    0.32   0.0   0.0   0.00   0.294   0.304   0.258   0.262   0.259   0.282   0.253   0.250   0.208   0.214
 2020 134   331   286    58    339    557   1638    18   481   120    0.50   0.0   0.0   0.00   0.294   0.291   0.254   0.258   0.256   0.275   0.252   0.249   0.208   0.214
 2020 135   332   281    53    339    557   1638    18   481   120    0.33   0.0   0.0   0.00   0.259   0.277   0.250   0.254   0.253   0.267   0.250   0.248   0.207   0.214
 2020 136   333   289    61    339    557   1651    18   481   120    0.50   0.0   0.0   0.00   0.342   0.320   0.253   0.250   0.250   0.260   0.249   0.247   0.207   0.214
 2020 137   334   286    58    339    557   1651    18   481   120    0.38   0.0   0.0   0.00   0.318   0.311   0.248   0.247   0.247   0.256   0.247   0.245   0.207   0.214
 2020 138   335   281    53    339    557   1651    18   481   120    0.25   0.0   0.0   0.00   0.277   0.294   0.245   0.245   0.245   0.252   0.245   0.245   0.207   0.214
 2020 139   336   279    51    339    557   1653    18   481   120    0.49   0.0   0.0   0.00   0.273   0.280   0.243   0.243   0.243   0.250   0.244   0.244   0.207   0.214
 2020 140   337   275    47    339    557   1654    18   481   120    0.36   0.0   0.0   0.00   0.242   0.264   0.241   0.241   0.242   0.248   0.243   0.243   0.207   0.214
 2020 141   338   307    79    339    557   1661    19   508   120    0.49   0.0   0.0   0.00   0.346   0.351   0.355   0.356   0.331   0.289   0.242   0.242   0.207   0.214
 2020 142   339   340   112    341    557   1700    19   508   120    0.40   0.0   0.0   2.05   0.356   0.357   0.350   0.351   0.345   0.359   0.364   0.344   0.253   0.213
 2020 143   340   344   116    341    557   1709    19   508   120    0.48   0.0   0.0   0.00   0.358   0.359   0.351   0.352   0.346   0.360   0.361   0.337   0.289   0.213
 2020 144   341   344   116    341    557   1713    19   508   120    0.42   0.0   0.0   0.00   0.356   0.344   0.348   0.347   0.339   0.358   0.358   0.330   0.311   0.213
 2020 145   342   351   123    341    557   1724    19   508   120    0.47   0.0   0.0   0.00   0.358   0.360   0.352   0.353   0.347   0.360   0.361   0.333   0.325   0.220
 2020 146   343   347   119    341    557   1724    19   508   120    0.44   0.0   0.0   0.00   0.331   0.339   0.340   0.343   0.336   0.356   0.357   0.328   0.326   0.230
 2020 147   344   344   116    341    557   1725    19   508   120    0.47   0.0   0.0   0.00   0.319   0.328   0.323   0.328   0.323   0.346   0.349   0.325   0.325   0.238
 2020 148   345   340   112    341    557   1725    19   508   120    0.43   0.0   0.0   0.00   0.311   0.320   0.316   0.317   0.311   0.335   0.339   0.322   0.322   0.242
 2020 149   346   363   135    341    557   1752    19   508   120    0.47   0.0   0.0   0.01   0.357   0.359   0.351   0.352   0.346   0.360   0.361   0.342   0.334   0.261
 2020 150   347   369   141    341    557   1763    19   508   120    0.44   0.0   0.0   0.00   0.358   0.359   0.352   0.352   0.346   0.360   0.361   0.341   0.338   0.283
 2020 151   348   367   139    341    557   1764    19   508   120    0.47   0.0   0.0   0.00   0.342   0.342   0.344   0.345   0.338   0.357   0.358   0.331   0.333   0.299
 2020 152   349   364   136    341    557   1766    19   508   120    0.45   0.0   0.0   0.00   0.334   0.333   0.330   0.334   0.327   0.349   0.352   0.327   0.328   0.309
 2020 153   350   415   187    359    560   1840    19   508   118    0.47   0.0   0.0  17.62   0.361   0.361   0.353   0.354   0.348   0.361   0.362   0.346   0.346   0.347
 2020 154   351   409   181    359    566   1845    19   508   116    0.45   0.0   0.0   0.00   0.359   0.350   0.352   0.353   0.345   0.361   0.361   0.334   0.338   0.336
 2020 155   352   403   175    359    571   1848    19   508   117    0.47   0.0   0.0   0.00   0.354   0.342   0.344   0.346   0.337   0.357   0.358   0.329   0.331   0.329
 2020 156   353   388   160    359    582   1848    19   508   119    0.30   0.0   0.0   0.00   0.327   0.330   0.323   0.324   0.315   0.335   0.336   0.321   0.322   0.322
 2020 157   354   384   156    359    583   1849    19   508   120    0.49   0.0   0.0   0.00   0.319   0.323   0.316   0.316   0.308   0.329   0.331   0.318   0.319   0.320
 2020 158   355   383   155    359    583   1852    19   508   120    0.40   0.0   0.0   0.00   0.337   0.329   0.311   0.311   0.304   0.325   0.328   0.316   0.317   0.319
 2020 159   356   379   151    359    583   1852    19   508   120    0.25   0.0   0.0   0.00   0.320   0.324   0.305   0.306   0.299   0.321   0.324   0.313   0.315   0.317
 2020 160   357   395   167    359    583   1871    19   508   120    0.52   0.0   0.0   0.00   0.360   0.361   0.353   0.354   0.347   0.354   0.343   0.319   0.315   0.316
 2020 161   358   387   159    359    587   1871    19   508   120    0.33   0.0   0.0   0.00   0.329   0.337   0.326   0.327   0.319   0.334   0.331   0.317   0.318   0.319
 2020 162   359   383   155    359    587   1872    19   508   120    0.54   0.0   0.0   0.00   0.323   0.329   0.318   0.320   0.312   0.331   0.331   0.317   0.316   0.317
 2020 163   360   380   152    359    587   1872    19   508   120    0.34   0.0   0.0   0.00   0.313   0.323   0.313   0.315   0.308   0.328   0.328   0.315   0.314   0.316
 2020 164   361   376   148    359    587   1872    19   508   120    0.22   0.0   0.0   0.00   0.287   0.317   0.309   0.311   0.304   0.325   0.325   0.313   0.312   0.315
 2020 165   362   409   181    361    589   1912    19   508   119    0.52   0.0   0.0   1.48   0.361   0.361   0.353   0.354   0.348   0.361   0.362   0.346   0.343   0.327
 2020 166   363   391   163    361    603   1912    19   508   120    0.33   0.0   0.0   0.00   0.330   0.337   0.326   0.327   0.319   0.337   0.338   0.326   0.326   0.321
 2020 167   364   387   159    361    604   1912    19   508   120    0.25   0.0   0.0   0.00   0.320   0.330   0.317   0.319   0.311   0.332   0.333   0.321   0.322   0.321
 2020 168   365   383   155    361    604   1912    19   508   120    0.33   0.0   0.0   0.00   0.312   0.322   0.310   0.313   0.306   0.328   0.328   0.319   0.320   0.319
 2020 169   366   382   154    361    604   1915    19   508   120    0.45   0.0   0.0   0.00   0.317   0.324   0.306   0.310   0.303   0.325   0.325   0.318   0.318   0.319
 2020 170   367   382   154    361    604   1919    19   508   120    0.44   0.0   0.0   0.00   0.346   0.331   0.312   0.305   0.299   0.321   0.322   0.315   0.316   0.317
 2020 171   368   379   151    361    604   1920    19   508   120    0.49   0.0   0.0   0.00   0.332   0.330   0.315   0.300   0.294   0.317   0.319   0.313   0.314   0.316
 2020 172   369   375   147    361    604   1920    19   508   120    0.35   0.0   0.0   0.00   0.320   0.323   0.309   0.295   0.290   0.313   0.315   0.310   0.312   0.315
 2020 173   370   373   145    361    604   1922    19   508   120    0.54   0.0   0.0   0.00   0.315   0.323   0.305   0.292   0.286   0.310   0.313   0.308   0.310   0.314
 2020 174   371   376   148    361    604   1929    19   508   120    0.42   0.0   0.0   0.00   0.360   0.337   0.321   0.299   0.282   0.306   0.310   0.306   0.308   0.313
 2020 175   372   372   144    361    604   1929    19   508   120    0.35   0.0   0.0   0.00   0.331   0.332   0.320   0.305   0.278   0.302   0.307   0.303   0.306   0.311
 2020 176   373   372   144    361    604   1932    19   508   120    0.51   0.0   0.0   0.00   0.343   0.333   0.321   0.312   0.274   0.298   0.304   0.301   0.304   0.310
 2020 177   374   368   140    361    604   1932    19   508   120    0.32   0.0   0.0   0.00   0.323   0.328   0.315   0.312   0.269   0.294   0.300   0.298   0.301   0.309
 2020 178   375   365   137    361    604   1932    19   508   120    0.33   0.0   0.0   0.00   0.303   0.322   0.311   0.308   0.267   0.292   0.298   0.297   0.300   0.308
 2020 179   376   361   133    361    604   1932    19   508   120    0.21   0.0   0.0   0.00   0.278   0.316   0.307   0.305   0.264   0.289   0.296   0.295   0.298   0.307
 2020 180   377   368   140    361    604   1943    19   508   120    0.54   0.0   0.0   0.00   0.346   0.342   0.327   0.318   0.266   0.285   0.293   0.293   0.297   0.307
 2020 181   378   368   140    361    604   1945    19   508   120    0.37   0.0   0.0   0.00   0.350   0.339   0.330   0.325   0.281   0.282   0.291   0.291   0.295   0.306
 2020 182   379   369   141    361    604   1951    19   508   120    0.56   0.0   0.0   0.00   0.361   0.343   0.337   0.332   0.307   0.279   0.288   0.289   0.293   0.304
 2020 183   380   366   138    361    604   1951    19   508   120    0.43   0.0   0.0   0.00   0.334   0.335   0.329   0.329   0.313   0.290   0.285   0.287   0.291   0.303
 2020 184   381   363   135    361    604   1951    19   508   120    0.40   0.0   0.0   0.00   0.322   0.330   0.318   0.320   0.310   0.294   0.282   0.285   0.289   0.302
 2020 185   382   380   152    361    604   1973    19   508   120    0.51   0.0   0.0   0.00   0.361   0.362   0.354   0.354   0.348   0.362   0.346   0.294   0.287   0.301
 2020 186   383   381   153    361    604   1977    19   508   120    0.46   0.0   0.0   0.00   0.362   0.352   0.354   0.354   0.346   0.362   0.357   0.311   0.285   0.300
 2020 187   384   380   152    361    604   1979    19   508   120    0.52   0.0   0.0   0.00   0.351   0.342   0.344   0.347   0.339   0.359   0.358   0.321   0.290   0.299
 2020 188   385   377   149    361    604   1980    19   508   120    0.48   0.0   0.0   0.00   0.331   0.334   0.330   0.335   0.328   0.351   0.353   0.324   0.299   0.298
 2020 189   386   377   149    361    604   1983    19   508   120    0.52   0.0   0.0   0.00   0.347   0.335   0.327   0.328   0.321   0.343   0.346   0.323   0.307   0.296
 2020 190   387   374   146    361    604   1983    19   508   120    0.32   0.0   0.0   0.00   0.326   0.328   0.317   0.318   0.310   0.331   0.332   0.319   0.318   0.298
 2020 191   388   370   142    361    604   1983    19   508   120    0.24   0.0   0.0   0.00   0.316   0.322   0.312   0.314   0.306   0.327   0.329   0.316   0.316   0.297
 2020 192   389   416   188    373    609   2051    19   508   117    0.54   0.0   0.0  12.65   0.361   0.362   0.354   0.354   0.348   0.361   0.362   0.346   0.346   0.347
 2020 193   390   407   179    373    616   2052    19   508   116    0.40   0.0   0.0   0.00   0.339   0.343   0.345   0.347   0.340   0.360   0.360   0.334   0.338   0.336
 2020 194   391   390   162    373    629   2052    19   508   119    0.24   0.0   0.0   0.00   0.323   0.332   0.324   0.325   0.317   0.337   0.337   0.323   0.324   0.324
 2020 195   392   384   156    373    632   2052    19   508   120    0.15   0.0   0.0   0.00   0.313   0.325   0.316   0.317   0.308   0.329   0.330   0.320   0.319   0.320
 2020 196   393   390   162    373    632   2061    19   508   120    0.55   0.0   0.0   0.00   0.362   0.346   0.337   0.329   0.314   0.331   0.330   0.320   0.318   0.319
 2020 197   394   385   157    373    634   2061    19   508   120    0.34   0.0   0.0   0.00   0.332   0.333   0.321   0.319   0.308   0.328   0.327   0.318   0.318   0.319
 2020 198   395   387   159    373    634   2066    19   508   120    0.60   0.0   0.0   0.00   0.361   0.339   0.328   0.324   0.311   0.329   0.329   0.316   0.316   0.318
 2020 199   396   386   158    373    634   2068    19   508   120    0.41   0.0   0.0   0.00   0.348   0.337   0.329   0.326   0.313   0.331   0.330   0.315   0.315   0.317
 2020 200   397   395   167    373    634   2081    19   508   120    0.59   0.0   0.0   0.00   0.361   0.362   0.353   0.354   0.348   0.354   0.345   0.320   0.317   0.316
 2020 201   398   398   170    373    634   2087    19   508   120    0.45   0.0   0.0   0.00   0.363   0.355   0.354   0.355   0.348   0.362   0.358   0.325   0.321   0.318
 2020 202   399   395   167    373    634   2087    19   508   120    0.37   0.0   0.0   0.00   0.335   0.340   0.341   0.345   0.339   0.359   0.358   0.326   0.324   0.321
 2020 203   400   387   159    373    639   2087    19   508   120    0.22   0.0   0.0   0.00   0.323   0.331   0.323   0.325   0.316   0.337   0.337   0.320   0.320   0.320
 2020 204   401   387   159    373    639   2091    19   508   120    0.57   0.0   0.0   0.00   0.344   0.333   0.322   0.322   0.312   0.333   0.334   0.319   0.320   0.318
 2020 205   402   383   155    373    639   2091    19   508   120    0.38   0.0   0.0   0.00   0.326   0.331   0.317   0.317   0.308   0.329   0.328   0.318   0.318   0.317
 2020 206   403   380   152    373    639   2091    19   508   120    0.46   0.0   0.0   0.00   0.310   0.326   0.313   0.314   0.305   0.326   0.326   0.316   0.317   0.316
 2020 207   404   378   150    373    639   2092    19   508   120    0.37   0.0   0.0   0.00   0.294   0.321   0.310   0.311   0.302   0.324   0.324   0.315   0.315   0.316
 2020 208   405   375   147    373    639   2092    19   508   120    0.27   0.0   0.0   0.00   0.273   0.316   0.306   0.307   0.299   0.321   0.322   0.313   0.314   0.315
 2020 209   406   372   144    373    639   2092    19   508   120    0.49   0.0   0.0   0.00   0.262   0.311   0.302   0.304   0.297   0.319   0.320   0.312   0.313   0.314
