*WARNING DETAIL FILE

******************************************************************************

*DSSAT Cropping System Model Ver. 4.8.0.010 -develop  AUG 07, 2021 22:25:12

*RUN   1        : IITA-TMS-IBA000070        CSYCA048 UYAB1901    1
 MODEL          : CSYCA048 - Cassava
 EXPERIMENT     : UYAB1901 CS UYT_GXE
 DATA PATH      : C:\DSSAT48\CASSAVA\
 TREATMENT  1   : IITA-TMS-IBA000070        CSYCA048
  

 CSYCA  YEAR DOY = 2019 169
   NO reserve CH2O included in the wt of leaves,stems,and Plant. stick.        

******************************************************************************

*DSSAT Cropping System Model Ver. 4.8.0.010 -develop  AUG 07, 2021 22:25:13

*RUN   2        : IITA-TMS-IBA30572         CSYCA048 UYAB1901    2
 MODEL          : CSYCA048 - Cassava
 EXPERIMENT     : UYAB1901 CS UYT_GXE
 DATA PATH      : C:\DSSAT48\CASSAVA\
 TREATMENT  2   : IITA-TMS-IBA30572         CSYCA048
  

 CSYCA  YEAR DOY = 2019 169
   NO reserve CH2O included in the wt of leaves,stems,and Plant. stick.        

******************************************************************************

*DSSAT Cropping System Model Ver. 4.8.0.010 -develop  AUG 07, 2021 22:25:14

*RUN   3        : IITA-TMS-IBA980581        CSYCA048 UYAB1901    3
 MODEL          : CSYCA048 - Cassava
 EXPERIMENT     : UYAB1901 CS UYT_GXE
 DATA PATH      : C:\DSSAT48\CASSAVA\
 TREATMENT  3   : IITA-TMS-IBA980581        CSYCA048
  

 CSYCA  YEAR DOY = 2019 169
   NO reserve CH2O included in the wt of leaves,stems,and Plant. stick.        

******************************************************************************

*DSSAT Cropping System Model Ver. 4.8.0.010 -develop  AUG 07, 2021 22:25:14

*RUN   4        : IITA-TMS-IBA982101        CSYCA048 UYAB1901    4
 MODEL          : CSYCA048 - Cassava
 EXPERIMENT     : UYAB1901 CS UYT_GXE
 DATA PATH      : C:\DSSAT48\CASSAVA\
 TREATMENT  4   : IITA-TMS-IBA982101        CSYCA048
  

 CSYCA  YEAR DOY = 2019 169
   NO reserve CH2O included in the wt of leaves,stems,and Plant. stick.        

******************************************************************************

*DSSAT Cropping System Model Ver. 4.8.0.010 -develop  AUG 07, 2021 22:25:15

*RUN   5        : TMEB419                   CSYCA048 UYAB1901    5
 MODEL          : CSYCA048 - Cassava
 EXPERIMENT     : UYAB1901 CS UYT_GXE
 DATA PATH      : C:\DSSAT48\CASSAVA\
 TREATMENT  5   : TMEB419                   CSYCA048
  

 CSYCA  YEAR DOY = 2019 169
   NO reserve CH2O included in the wt of leaves,stems,and Plant. stick.        

******************************************************************************

*DSSAT Cropping System Model Ver. 4.8.0.010 -develop  AUG 07, 2021 22:25:16

*RUN   6        : TMS13F1021P0008           CSYCA048 UYAB1901    6
 MODEL          : CSYCA048 - Cassava
 EXPERIMENT     : UYAB1901 CS UYT_GXE
 DATA PATH      : C:\DSSAT48\CASSAVA\
 TREATMENT  6   : TMS13F1021P0008           CSYCA048
  

 CSYCA  YEAR DOY = 2019 169
   NO reserve CH2O included in the wt of leaves,stems,and Plant. stick.        

******************************************************************************

*DSSAT Cropping System Model Ver. 4.8.0.010 -develop  AUG 07, 2021 22:25:16

*RUN   7        : TMS13F1049P0001           CSYCA048 UYAB1901    7
 MODEL          : CSYCA048 - Cassava
 EXPERIMENT     : UYAB1901 CS UYT_GXE
 DATA PATH      : C:\DSSAT48\CASSAVA\
 TREATMENT  7   : TMS13F1049P0001           CSYCA048
  

 CSYCA  YEAR DOY = 2019 169
   NO reserve CH2O included in the wt of leaves,stems,and Plant. stick.        

******************************************************************************

*DSSAT Cropping System Model Ver. 4.8.0.010 -develop  AUG 07, 2021 22:25:17

*RUN   8        : TMS13F1114P0001           CSYCA048 UYAB1901    8
 MODEL          : CSYCA048 - Cassava
 EXPERIMENT     : UYAB1901 CS UYT_GXE
 DATA PATH      : C:\DSSAT48\CASSAVA\
 TREATMENT  8   : TMS13F1114P0001           CSYCA048
  

 CSYCA  YEAR DOY = 2019 169
   NO reserve CH2O included in the wt of leaves,stems,and Plant. stick.        

******************************************************************************

*DSSAT Cropping System Model Ver. 4.8.0.010 -develop  AUG 07, 2021 22:25:18

*RUN   9        : TMS13F1126P0003           CSYCA048 UYAB1901    9
 MODEL          : CSYCA048 - Cassava
 EXPERIMENT     : UYAB1901 CS UYT_GXE
 DATA PATH      : C:\DSSAT48\CASSAVA\
 TREATMENT  9   : TMS13F1126P0003           CSYCA048
  

 CSYCA  YEAR DOY = 2019 169
   NO reserve CH2O included in the wt of leaves,stems,and Plant. stick.        

******************************************************************************

*DSSAT Cropping System Model Ver. 4.8.0.010 -develop  AUG 07, 2021 22:25:18

*RUN  10        : TMS13F1182P0002           CSYCA048 UYAB1901   10
 MODEL          : CSYCA048 - Cassava
 EXPERIMENT     : UYAB1901 CS UYT_GXE
 DATA PATH      : C:\DSSAT48\CASSAVA\
 TREATMENT 10   : TMS13F1182P0002           CSYCA048
  

 CSYCA  YEAR DOY = 2019 169
   NO reserve CH2O included in the wt of leaves,stems,and Plant. stick.        

******************************************************************************

*DSSAT Cropping System Model Ver. 4.8.0.010 -develop  AUG 07, 2021 22:25:19

*RUN  11        : TMS13F1304P0003           CSYCA048 UYAB1901   11
 MODEL          : CSYCA048 - Cassava
 EXPERIMENT     : UYAB1901 CS UYT_GXE
 DATA PATH      : C:\DSSAT48\CASSAVA\
 TREATMENT 11   : TMS13F1304P0003           CSYCA048
  

 CSYCA  YEAR DOY = 2019 169
   NO reserve CH2O included in the wt of leaves,stems,and Plant. stick.        

******************************************************************************

*DSSAT Cropping System Model Ver. 4.8.0.010 -develop  AUG 07, 2021 22:25:19

*RUN  12        : TMS13F1315P0008           CSYCA048 UYAB1901   12
 MODEL          : CSYCA048 - Cassava
 EXPERIMENT     : UYAB1901 CS UYT_GXE
 DATA PATH      : C:\DSSAT48\CASSAVA\
 TREATMENT 12   : TMS13F1315P0008           CSYCA048
  

 CSYCA  YEAR DOY = 2019 169
   NO reserve CH2O included in the wt of leaves,stems,and Plant. stick.        

******************************************************************************

*DSSAT Cropping System Model Ver. 4.8.0.010 -develop  AUG 07, 2021 22:25:20

*RUN  13        : TMS13F1376P0018           CSYCA048 UYAB1901   13
 MODEL          : CSYCA048 - Cassava
 EXPERIMENT     : UYAB1901 CS UYT_GXE
 DATA PATH      : C:\DSSAT48\CASSAVA\
 TREATMENT 13   : TMS13F1376P0018           CSYCA048
  

 CSYCA  YEAR DOY = 2019 169
   NO reserve CH2O included in the wt of leaves,stems,and Plant. stick.        

******************************************************************************

*DSSAT Cropping System Model Ver. 4.8.0.010 -develop  AUG 07, 2021 22:25:21

*RUN  14        : TMS13F1400P0001           CSYCA048 UYAB1901   14
 MODEL          : CSYCA048 - Cassava
 EXPERIMENT     : UYAB1901 CS UYT_GXE
 DATA PATH      : C:\DSSAT48\CASSAVA\
 TREATMENT 14   : TMS13F1400P0001           CSYCA048
  

 CSYCA  YEAR DOY = 2019 169
   NO reserve CH2O included in the wt of leaves,stems,and Plant. stick.        

******************************************************************************

*DSSAT Cropping System Model Ver. 4.8.0.010 -develop  AUG 07, 2021 22:25:21

*RUN  15        : TMS13F1461P0002           CSYCA048 UYAB1901   15
 MODEL          : CSYCA048 - Cassava
 EXPERIMENT     : UYAB1901 CS UYT_GXE
 DATA PATH      : C:\DSSAT48\CASSAVA\
 TREATMENT 15   : TMS13F1461P0002           CSYCA048
  

 CSYCA  YEAR DOY = 2019 169
   NO reserve CH2O included in the wt of leaves,stems,and Plant. stick.        

******************************************************************************

*DSSAT Cropping System Model Ver. 4.8.0.010 -develop  AUG 07, 2021 22:25:22

*RUN  16        : TMS13F2061P0005           CSYCA048 UYAB1901   16
 MODEL          : CSYCA048 - Cassava
 EXPERIMENT     : UYAB1901 CS UYT_GXE
 DATA PATH      : C:\DSSAT48\CASSAVA\
 TREATMENT 16   : TMS13F2061P0005           CSYCA048
  

 CSYCA  YEAR DOY = 2019 169
   NO reserve CH2O included in the wt of leaves,stems,and Plant. stick.        

******************************************************************************

*DSSAT Cropping System Model Ver. 4.8.0.010 -develop  AUG 07, 2021 22:25:23

*RUN  17        : TMS13F2207P0001           CSYCA048 UYAB1901   17
 MODEL          : CSYCA048 - Cassava
 EXPERIMENT     : UYAB1901 CS UYT_GXE
 DATA PATH      : C:\DSSAT48\CASSAVA\
 TREATMENT 17   : TMS13F2207P0001           CSYCA048
  

 CSYCA  YEAR DOY = 2019 169
   NO reserve CH2O included in the wt of leaves,stems,and Plant. stick.        

******************************************************************************

*DSSAT Cropping System Model Ver. 4.8.0.010 -develop  AUG 07, 2021 22:25:23

*RUN  18        : TMS14F1001P0004           CSYCA048 UYAB1901   18
 MODEL          : CSYCA048 - Cassava
 EXPERIMENT     : UYAB1901 CS UYT_GXE
 DATA PATH      : C:\DSSAT48\CASSAVA\
 TREATMENT 18   : TMS14F1001P0004           CSYCA048
  

 CSYCA  YEAR DOY = 2019 169
   NO reserve CH2O included in the wt of leaves,stems,and Plant. stick.        

******************************************************************************

*DSSAT Cropping System Model Ver. 4.8.0.010 -develop  AUG 07, 2021 22:25:24

*RUN  19        : TMS14F1013P0007           CSYCA048 UYAB1901   19
 MODEL          : CSYCA048 - Cassava
 EXPERIMENT     : UYAB1901 CS UYT_GXE
 DATA PATH      : C:\DSSAT48\CASSAVA\
 TREATMENT 19   : TMS14F1013P0007           CSYCA048
  

 CSYCA  YEAR DOY = 2019 169
   NO reserve CH2O included in the wt of leaves,stems,and Plant. stick.        

******************************************************************************

*DSSAT Cropping System Model Ver. 4.8.0.010 -develop  AUG 07, 2021 22:25:25

*RUN  20        : TMS14F1014P0016           CSYCA048 UYAB1901   20
 MODEL          : CSYCA048 - Cassava
 EXPERIMENT     : UYAB1901 CS UYT_GXE
 DATA PATH      : C:\DSSAT48\CASSAVA\
 TREATMENT 20   : TMS14F1014P0016           CSYCA048
  

 CSYCA  YEAR DOY = 2019 169
   NO reserve CH2O included in the wt of leaves,stems,and Plant. stick.        

******************************************************************************

*DSSAT Cropping System Model Ver. 4.8.0.010 -develop  AUG 07, 2021 22:25:25

*RUN  21        : TMS14F1014P0017           CSYCA048 UYAB1901   21
 MODEL          : CSYCA048 - Cassava
 EXPERIMENT     : UYAB1901 CS UYT_GXE
 DATA PATH      : C:\DSSAT48\CASSAVA\
 TREATMENT 21   : TMS14F1014P0017           CSYCA048
  

 CSYCA  YEAR DOY = 2019 169
   NO reserve CH2O included in the wt of leaves,stems,and Plant. stick.        

******************************************************************************

*DSSAT Cropping System Model Ver. 4.8.0.010 -develop  AUG 07, 2021 22:25:26

*RUN  22        : TMS14F1016P0006           CSYCA048 UYAB1901   22
 MODEL          : CSYCA048 - Cassava
 EXPERIMENT     : UYAB1901 CS UYT_GXE
 DATA PATH      : C:\DSSAT48\CASSAVA\
 TREATMENT 22   : TMS14F1016P0006           CSYCA048
  

 CSYCA  YEAR DOY = 2019 169
   NO reserve CH2O included in the wt of leaves,stems,and Plant. stick.        

******************************************************************************

*DSSAT Cropping System Model Ver. 4.8.0.010 -develop  AUG 07, 2021 22:25:26

*RUN  23        : TMS14F1019P0015           CSYCA048 UYAB1901   23
 MODEL          : CSYCA048 - Cassava
 EXPERIMENT     : UYAB1901 CS UYT_GXE
 DATA PATH      : C:\DSSAT48\CASSAVA\
 TREATMENT 23   : TMS14F1019P0015           CSYCA048
  

 CSYCA  YEAR DOY = 2019 169
   NO reserve CH2O included in the wt of leaves,stems,and Plant. stick.        

******************************************************************************

*DSSAT Cropping System Model Ver. 4.8.0.010 -develop  AUG 07, 2021 22:25:27

*RUN  24        : TMS14F1022P0003           CSYCA048 UYAB1901   24
 MODEL          : CSYCA048 - Cassava
 EXPERIMENT     : UYAB1901 CS UYT_GXE
 DATA PATH      : C:\DSSAT48\CASSAVA\
 TREATMENT 24   : TMS14F1022P0003           CSYCA048
  

 CSYCA  YEAR DOY = 2019 169
   NO reserve CH2O included in the wt of leaves,stems,and Plant. stick.        

******************************************************************************

*DSSAT Cropping System Model Ver. 4.8.0.010 -develop  AUG 07, 2021 22:25:28

*RUN  25        : TMS14F1022P0006           CSYCA048 UYAB1901   25
 MODEL          : CSYCA048 - Cassava
 EXPERIMENT     : UYAB1901 CS UYT_GXE
 DATA PATH      : C:\DSSAT48\CASSAVA\
 TREATMENT 25   : TMS14F1022P0006           CSYCA048
  

 CSYCA  YEAR DOY = 2019 169
   NO reserve CH2O included in the wt of leaves,stems,and Plant. stick.        

******************************************************************************

*DSSAT Cropping System Model Ver. 4.8.0.010 -develop  AUG 07, 2021 22:25:28

*RUN  26        : TMS14F1035P0004           CSYCA048 UYAB1901   26
 MODEL          : CSYCA048 - Cassava
 EXPERIMENT     : UYAB1901 CS UYT_GXE
 DATA PATH      : C:\DSSAT48\CASSAVA\
 TREATMENT 26   : TMS14F1035P0004           CSYCA048
  

 CSYCA  YEAR DOY = 2019 169
   NO reserve CH2O included in the wt of leaves,stems,and Plant. stick.        

******************************************************************************

*DSSAT Cropping System Model Ver. 4.8.0.010 -develop  AUG 07, 2021 22:25:29

*RUN  27        : TMS14F1035P0007           CSYCA048 UYAB1901   27
 MODEL          : CSYCA048 - Cassava
 EXPERIMENT     : UYAB1901 CS UYT_GXE
 DATA PATH      : C:\DSSAT48\CASSAVA\
 TREATMENT 27   : TMS14F1035P0007           CSYCA048
  

 CSYCA  YEAR DOY = 2019 169
   NO reserve CH2O included in the wt of leaves,stems,and Plant. stick.        

******************************************************************************

*DSSAT Cropping System Model Ver. 4.8.0.010 -develop  AUG 07, 2021 22:25:29

*RUN  28        : TMS14F1036P0007           CSYCA048 UYAB1901   28
 MODEL          : CSYCA048 - Cassava
 EXPERIMENT     : UYAB1901 CS UYT_GXE
 DATA PATH      : C:\DSSAT48\CASSAVA\
 TREATMENT 28   : TMS14F1036P0007           CSYCA048
  

 CSYCA  YEAR DOY = 2019 169
   NO reserve CH2O included in the wt of leaves,stems,and Plant. stick.        

******************************************************************************

*DSSAT Cropping System Model Ver. 4.8.0.010 -develop  AUG 07, 2021 22:25:30

*RUN  29        : TMS14F1049P0001           CSYCA048 UYAB1901   29
 MODEL          : CSYCA048 - Cassava
 EXPERIMENT     : UYAB1901 CS UYT_GXE
 DATA PATH      : C:\DSSAT48\CASSAVA\
 TREATMENT 29   : TMS14F1049P0001           CSYCA048
  

 CSYCA  YEAR DOY = 2019 169
   NO reserve CH2O included in the wt of leaves,stems,and Plant. stick.        

******************************************************************************

*DSSAT Cropping System Model Ver. 4.8.0.010 -develop  AUG 07, 2021 22:25:31

*RUN  30        : TMS14F1098P0013           CSYCA048 UYAB1901   30
 MODEL          : CSYCA048 - Cassava
 EXPERIMENT     : UYAB1901 CS UYT_GXE
 DATA PATH      : C:\DSSAT48\CASSAVA\
 TREATMENT 30   : TMS14F1098P0013           CSYCA048
  

 CSYCA  YEAR DOY = 2019 169
   NO reserve CH2O included in the wt of leaves,stems,and Plant. stick.        

******************************************************************************

*DSSAT Cropping System Model Ver. 4.8.0.010 -develop  AUG 07, 2021 22:25:31

*RUN  31        : TMS14F1120P0003           CSYCA048 UYAB1901   31
 MODEL          : CSYCA048 - Cassava
 EXPERIMENT     : UYAB1901 CS UYT_GXE
 DATA PATH      : C:\DSSAT48\CASSAVA\
 TREATMENT 31   : TMS14F1120P0003           CSYCA048
  

 CSYCA  YEAR DOY = 2019 169
   NO reserve CH2O included in the wt of leaves,stems,and Plant. stick.        

******************************************************************************

*DSSAT Cropping System Model Ver. 4.8.0.010 -develop  AUG 07, 2021 22:25:32

*RUN  32        : TMS14F1125P0010           CSYCA048 UYAB1901   32
 MODEL          : CSYCA048 - Cassava
 EXPERIMENT     : UYAB1901 CS UYT_GXE
 DATA PATH      : C:\DSSAT48\CASSAVA\
 TREATMENT 32   : TMS14F1125P0010           CSYCA048
  

 CSYCA  YEAR DOY = 2019 169
   NO reserve CH2O included in the wt of leaves,stems,and Plant. stick.        

******************************************************************************

*DSSAT Cropping System Model Ver. 4.8.0.010 -develop  AUG 07, 2021 22:25:32

*RUN  33        : TMS14F1131P0001           CSYCA048 UYAB1901   33
 MODEL          : CSYCA048 - Cassava
 EXPERIMENT     : UYAB1901 CS UYT_GXE
 DATA PATH      : C:\DSSAT48\CASSAVA\
 TREATMENT 33   : TMS14F1131P0001           CSYCA048
  

 CSYCA  YEAR DOY = 2019 169
   NO reserve CH2O included in the wt of leaves,stems,and Plant. stick.        

******************************************************************************

*DSSAT Cropping System Model Ver. 4.8.0.010 -develop  AUG 07, 2021 22:25:33

*RUN  34        : TMS14F1146P0002           CSYCA048 UYAB1901   34
 MODEL          : CSYCA048 - Cassava
 EXPERIMENT     : UYAB1901 CS UYT_GXE
 DATA PATH      : C:\DSSAT48\CASSAVA\
 TREATMENT 34   : TMS14F1146P0002           CSYCA048
  

 CSYCA  YEAR DOY = 2019 169
   NO reserve CH2O included in the wt of leaves,stems,and Plant. stick.        

******************************************************************************

*DSSAT Cropping System Model Ver. 4.8.0.010 -develop  AUG 07, 2021 22:25:34

*RUN  35        : TMS14F1159P0003           CSYCA048 UYAB1901   35
 MODEL          : CSYCA048 - Cassava
 EXPERIMENT     : UYAB1901 CS UYT_GXE
 DATA PATH      : C:\DSSAT48\CASSAVA\
 TREATMENT 35   : TMS14F1159P0003           CSYCA048
  

 CSYCA  YEAR DOY = 2019 169
   NO reserve CH2O included in the wt of leaves,stems,and Plant. stick.        

******************************************************************************

*DSSAT Cropping System Model Ver. 4.8.0.010 -develop  AUG 07, 2021 22:25:34

*RUN  36        : TMS14F1194P0002           CSYCA048 UYAB1901   36
 MODEL          : CSYCA048 - Cassava
 EXPERIMENT     : UYAB1901 CS UYT_GXE
 DATA PATH      : C:\DSSAT48\CASSAVA\
 TREATMENT 36   : TMS14F1194P0002           CSYCA048
  

 CSYCA  YEAR DOY = 2019 169
   NO reserve CH2O included in the wt of leaves,stems,and Plant. stick.        

******************************************************************************

*DSSAT Cropping System Model Ver. 4.8.0.010 -develop  AUG 07, 2021 22:25:35

*RUN  37        : TMS14F1195P0004           CSYCA048 UYAB1901   37
 MODEL          : CSYCA048 - Cassava
 EXPERIMENT     : UYAB1901 CS UYT_GXE
 DATA PATH      : C:\DSSAT48\CASSAVA\
 TREATMENT 37   : TMS14F1195P0004           CSYCA048
  

 CSYCA  YEAR DOY = 2019 169
   NO reserve CH2O included in the wt of leaves,stems,and Plant. stick.        

******************************************************************************

*DSSAT Cropping System Model Ver. 4.8.0.010 -develop  AUG 07, 2021 22:25:35

*RUN  38        : TMS14F1195P0005           CSYCA048 UYAB1901   38
 MODEL          : CSYCA048 - Cassava
 EXPERIMENT     : UYAB1901 CS UYT_GXE
 DATA PATH      : C:\DSSAT48\CASSAVA\
 TREATMENT 38   : TMS14F1195P0005           CSYCA048
  

 CSYCA  YEAR DOY = 2019 169
   NO reserve CH2O included in the wt of leaves,stems,and Plant. stick.        

******************************************************************************

*DSSAT Cropping System Model Ver. 4.8.0.010 -develop  AUG 07, 2021 22:25:36

*RUN  39        : TMS14F1196P0003           CSYCA048 UYAB1901   39
 MODEL          : CSYCA048 - Cassava
 EXPERIMENT     : UYAB1901 CS UYT_GXE
 DATA PATH      : C:\DSSAT48\CASSAVA\
 TREATMENT 39   : TMS14F1196P0003           CSYCA048
  

 CSYCA  YEAR DOY = 2019 169
   NO reserve CH2O included in the wt of leaves,stems,and Plant. stick.        

******************************************************************************

*DSSAT Cropping System Model Ver. 4.8.0.010 -develop  AUG 07, 2021 22:25:37

*RUN  40        : TMS14F1208P0007           CSYCA048 UYAB1901   40
 MODEL          : CSYCA048 - Cassava
 EXPERIMENT     : UYAB1901 CS UYT_GXE
 DATA PATH      : C:\DSSAT48\CASSAVA\
 TREATMENT 40   : TMS14F1208P0007           CSYCA048
  

 CSYCA  YEAR DOY = 2019 169
   NO reserve CH2O included in the wt of leaves,stems,and Plant. stick.        

******************************************************************************

*DSSAT Cropping System Model Ver. 4.8.0.010 -develop  AUG 07, 2021 22:25:37

*RUN  41        : TMS14F1223P0007           CSYCA048 UYAB1901   41
 MODEL          : CSYCA048 - Cassava
 EXPERIMENT     : UYAB1901 CS UYT_GXE
 DATA PATH      : C:\DSSAT48\CASSAVA\
 TREATMENT 41   : TMS14F1223P0007           CSYCA048
  

 CSYCA  YEAR DOY = 2019 169
   NO reserve CH2O included in the wt of leaves,stems,and Plant. stick.        

******************************************************************************

*DSSAT Cropping System Model Ver. 4.8.0.010 -develop  AUG 07, 2021 22:25:38

*RUN  42        : TMS14F1224P0004           CSYCA048 UYAB1901   42
 MODEL          : CSYCA048 - Cassava
 EXPERIMENT     : UYAB1901 CS UYT_GXE
 DATA PATH      : C:\DSSAT48\CASSAVA\
 TREATMENT 42   : TMS14F1224P0004           CSYCA048
  

 CSYCA  YEAR DOY = 2019 169
   NO reserve CH2O included in the wt of leaves,stems,and Plant. stick.        

******************************************************************************

*DSSAT Cropping System Model Ver. 4.8.0.010 -develop  AUG 07, 2021 22:25:39

*RUN  43        : TMS14F1262P0002           CSYCA048 UYAB1901   43
 MODEL          : CSYCA048 - Cassava
 EXPERIMENT     : UYAB1901 CS UYT_GXE
 DATA PATH      : C:\DSSAT48\CASSAVA\
 TREATMENT 43   : TMS14F1262P0002           CSYCA048
  

 CSYCA  YEAR DOY = 2019 169
   NO reserve CH2O included in the wt of leaves,stems,and Plant. stick.        

******************************************************************************

*DSSAT Cropping System Model Ver. 4.8.0.010 -develop  AUG 07, 2021 22:25:39

*RUN  44        : TMS14F1278P0003           CSYCA048 UYAB1901   44
 MODEL          : CSYCA048 - Cassava
 EXPERIMENT     : UYAB1901 CS UYT_GXE
 DATA PATH      : C:\DSSAT48\CASSAVA\
 TREATMENT 44   : TMS14F1278P0003           CSYCA048
  

 CSYCA  YEAR DOY = 2019 169
   NO reserve CH2O included in the wt of leaves,stems,and Plant. stick.        

******************************************************************************

*DSSAT Cropping System Model Ver. 4.8.0.010 -develop  AUG 07, 2021 22:25:40

*RUN  45        : TMS14F1285P0006           CSYCA048 UYAB1901   45
 MODEL          : CSYCA048 - Cassava
 EXPERIMENT     : UYAB1901 CS UYT_GXE
 DATA PATH      : C:\DSSAT48\CASSAVA\
 TREATMENT 45   : TMS14F1285P0006           CSYCA048
  

 CSYCA  YEAR DOY = 2019 169
   NO reserve CH2O included in the wt of leaves,stems,and Plant. stick.        

******************************************************************************

*DSSAT Cropping System Model Ver. 4.8.0.010 -develop  AUG 07, 2021 22:25:41

*RUN  46        : TMS14F1285P0017           CSYCA048 UYAB1901   46
 MODEL          : CSYCA048 - Cassava
 EXPERIMENT     : UYAB1901 CS UYT_GXE
 DATA PATH      : C:\DSSAT48\CASSAVA\
 TREATMENT 46   : TMS14F1285P0017           CSYCA048
  

 CSYCA  YEAR DOY = 2019 169
   NO reserve CH2O included in the wt of leaves,stems,and Plant. stick.        

******************************************************************************

*DSSAT Cropping System Model Ver. 4.8.0.010 -develop  AUG 07, 2021 22:25:41

*RUN  47        : TMS14F1287P0008           CSYCA048 UYAB1901   47
 MODEL          : CSYCA048 - Cassava
 EXPERIMENT     : UYAB1901 CS UYT_GXE
 DATA PATH      : C:\DSSAT48\CASSAVA\
 TREATMENT 47   : TMS14F1287P0008           CSYCA048
  

 CSYCA  YEAR DOY = 2019 169
   NO reserve CH2O included in the wt of leaves,stems,and Plant. stick.        

******************************************************************************

*DSSAT Cropping System Model Ver. 4.8.0.010 -develop  AUG 07, 2021 22:25:42

*RUN  48        : TMS14F1288P0008           CSYCA048 UYAB1901   48
 MODEL          : CSYCA048 - Cassava
 EXPERIMENT     : UYAB1901 CS UYT_GXE
 DATA PATH      : C:\DSSAT48\CASSAVA\
 TREATMENT 48   : TMS14F1288P0008           CSYCA048
  

 CSYCA  YEAR DOY = 2019 169
   NO reserve CH2O included in the wt of leaves,stems,and Plant. stick.        

******************************************************************************

*DSSAT Cropping System Model Ver. 4.8.0.010 -develop  AUG 07, 2021 22:25:42

*RUN  49        : TMS14F1291P0003           CSYCA048 UYAB1901   49
 MODEL          : CSYCA048 - Cassava
 EXPERIMENT     : UYAB1901 CS UYT_GXE
 DATA PATH      : C:\DSSAT48\CASSAVA\
 TREATMENT 49   : TMS14F1291P0003           CSYCA048
  

 CSYCA  YEAR DOY = 2019 169
   NO reserve CH2O included in the wt of leaves,stems,and Plant. stick.        

******************************************************************************

*DSSAT Cropping System Model Ver. 4.8.0.010 -develop  AUG 07, 2021 22:25:43

*RUN  50        : TMS14F1291P0011           CSYCA048 UYAB1901   50
 MODEL          : CSYCA048 - Cassava
 EXPERIMENT     : UYAB1901 CS UYT_GXE
 DATA PATH      : C:\DSSAT48\CASSAVA\
 TREATMENT 50   : TMS14F1291P0011           CSYCA048
  

 CSYCA  YEAR DOY = 2019 169
   NO reserve CH2O included in the wt of leaves,stems,and Plant. stick.        

******************************************************************************

*DSSAT Cropping System Model Ver. 4.8.0.010 -develop  AUG 07, 2021 22:25:43

*RUN  51        : TMS14F1291P0012           CSYCA048 UYAB1901   51
 MODEL          : CSYCA048 - Cassava
 EXPERIMENT     : UYAB1901 CS UYT_GXE
 DATA PATH      : C:\DSSAT48\CASSAVA\
 TREATMENT 51   : TMS14F1291P0012           CSYCA048
  

 CSYCA  YEAR DOY = 2019 169
   NO reserve CH2O included in the wt of leaves,stems,and Plant. stick.        

******************************************************************************

*DSSAT Cropping System Model Ver. 4.8.0.010 -develop  AUG 07, 2021 22:25:44

*RUN  52        : TMS14F1292P0012           CSYCA048 UYAB1901   52
 MODEL          : CSYCA048 - Cassava
 EXPERIMENT     : UYAB1901 CS UYT_GXE
 DATA PATH      : C:\DSSAT48\CASSAVA\
 TREATMENT 52   : TMS14F1292P0012           CSYCA048
  

 CSYCA  YEAR DOY = 2019 169
   NO reserve CH2O included in the wt of leaves,stems,and Plant. stick.        

******************************************************************************

*DSSAT Cropping System Model Ver. 4.8.0.010 -develop  AUG 07, 2021 22:25:45

*RUN  53        : TMS14F1295P0012           CSYCA048 UYAB1901   53
 MODEL          : CSYCA048 - Cassava
 EXPERIMENT     : UYAB1901 CS UYT_GXE
 DATA PATH      : C:\DSSAT48\CASSAVA\
 TREATMENT 53   : TMS14F1295P0012           CSYCA048
  

 CSYCA  YEAR DOY = 2019 169
   NO reserve CH2O included in the wt of leaves,stems,and Plant. stick.        

******************************************************************************

*DSSAT Cropping System Model Ver. 4.8.0.010 -develop  AUG 07, 2021 22:25:45

*RUN  54        : TMS14F1297P0019           CSYCA048 UYAB1901   54
 MODEL          : CSYCA048 - Cassava
 EXPERIMENT     : UYAB1901 CS UYT_GXE
 DATA PATH      : C:\DSSAT48\CASSAVA\
 TREATMENT 54   : TMS14F1297P0019           CSYCA048
  

 CSYCA  YEAR DOY = 2019 169
   NO reserve CH2O included in the wt of leaves,stems,and Plant. stick.        

******************************************************************************

*DSSAT Cropping System Model Ver. 4.8.0.010 -develop  AUG 07, 2021 22:25:46

*RUN  55        : TMS14F1299P0007           CSYCA048 UYAB1901   55
 MODEL          : CSYCA048 - Cassava
 EXPERIMENT     : UYAB1901 CS UYT_GXE
 DATA PATH      : C:\DSSAT48\CASSAVA\
 TREATMENT 55   : TMS14F1299P0007           CSYCA048
  

 CSYCA  YEAR DOY = 2019 169
   NO reserve CH2O included in the wt of leaves,stems,and Plant. stick.        

******************************************************************************

*DSSAT Cropping System Model Ver. 4.8.0.010 -develop  AUG 07, 2021 22:25:46

*RUN  56        : TMS14F1300P0002           CSYCA048 UYAB1901   56
 MODEL          : CSYCA048 - Cassava
 EXPERIMENT     : UYAB1901 CS UYT_GXE
 DATA PATH      : C:\DSSAT48\CASSAVA\
 TREATMENT 56   : TMS14F1300P0002           CSYCA048
  

 CSYCA  YEAR DOY = 2019 169
   NO reserve CH2O included in the wt of leaves,stems,and Plant. stick.        

******************************************************************************

*DSSAT Cropping System Model Ver. 4.8.0.010 -develop  AUG 07, 2021 22:25:47

*RUN  57        : TMS14F1300P0008           CSYCA048 UYAB1901   57
 MODEL          : CSYCA048 - Cassava
 EXPERIMENT     : UYAB1901 CS UYT_GXE
 DATA PATH      : C:\DSSAT48\CASSAVA\
 TREATMENT 57   : TMS14F1300P0008           CSYCA048
  

 CSYCA  YEAR DOY = 2019 169
   NO reserve CH2O included in the wt of leaves,stems,and Plant. stick.        

******************************************************************************

*DSSAT Cropping System Model Ver. 4.8.0.010 -develop  AUG 07, 2021 22:25:48

*RUN  58        : TMS14F1301P0004           CSYCA048 UYAB1901   58
 MODEL          : CSYCA048 - Cassava
 EXPERIMENT     : UYAB1901 CS UYT_GXE
 DATA PATH      : C:\DSSAT48\CASSAVA\
 TREATMENT 58   : TMS14F1301P0004           CSYCA048
  

 CSYCA  YEAR DOY = 2019 169
   NO reserve CH2O included in the wt of leaves,stems,and Plant. stick.        

******************************************************************************

*DSSAT Cropping System Model Ver. 4.8.0.010 -develop  AUG 07, 2021 22:25:48

*RUN  59        : TMS14F1301P0013           CSYCA048 UYAB1901   59
 MODEL          : CSYCA048 - Cassava
 EXPERIMENT     : UYAB1901 CS UYT_GXE
 DATA PATH      : C:\DSSAT48\CASSAVA\
 TREATMENT 59   : TMS14F1301P0013           CSYCA048
  

 CSYCA  YEAR DOY = 2019 169
   NO reserve CH2O included in the wt of leaves,stems,and Plant. stick.        

******************************************************************************

*DSSAT Cropping System Model Ver. 4.8.0.010 -develop  AUG 07, 2021 22:25:49

*RUN  60        : TMS14F1303P0012           CSYCA048 UYAB1901   60
 MODEL          : CSYCA048 - Cassava
 EXPERIMENT     : UYAB1901 CS UYT_GXE
 DATA PATH      : C:\DSSAT48\CASSAVA\
 TREATMENT 60   : TMS14F1303P0012           CSYCA048
  

 CSYCA  YEAR DOY = 2019 169
   NO reserve CH2O included in the wt of leaves,stems,and Plant. stick.        

******************************************************************************

*DSSAT Cropping System Model Ver. 4.8.0.010 -develop  AUG 07, 2021 22:25:49

*RUN  61        : TMS14F1306P0008           CSYCA048 UYAB1901   61
 MODEL          : CSYCA048 - Cassava
 EXPERIMENT     : UYAB1901 CS UYT_GXE
 DATA PATH      : C:\DSSAT48\CASSAVA\
 TREATMENT 61   : TMS14F1306P0008           CSYCA048
  

 CSYCA  YEAR DOY = 2019 169
   NO reserve CH2O included in the wt of leaves,stems,and Plant. stick.        

******************************************************************************

*DSSAT Cropping System Model Ver. 4.8.0.010 -develop  AUG 07, 2021 22:25:50

*RUN  62        : TMS14F1306P0015           CSYCA048 UYAB1901   62
 MODEL          : CSYCA048 - Cassava
 EXPERIMENT     : UYAB1901 CS UYT_GXE
 DATA PATH      : C:\DSSAT48\CASSAVA\
 TREATMENT 62   : TMS14F1306P0015           CSYCA048
  

 CSYCA  YEAR DOY = 2019 169
   NO reserve CH2O included in the wt of leaves,stems,and Plant. stick.        

******************************************************************************

*DSSAT Cropping System Model Ver. 4.8.0.010 -develop  AUG 07, 2021 22:25:51

*RUN  63        : TMS14F1306P0020           CSYCA048 UYAB1901   63
 MODEL          : CSYCA048 - Cassava
 EXPERIMENT     : UYAB1901 CS UYT_GXE
 DATA PATH      : C:\DSSAT48\CASSAVA\
 TREATMENT 63   : TMS14F1306P0020           CSYCA048
  

 CSYCA  YEAR DOY = 2019 169
   NO reserve CH2O included in the wt of leaves,stems,and Plant. stick.        

******************************************************************************

*DSSAT Cropping System Model Ver. 4.8.0.010 -develop  AUG 07, 2021 22:25:51

*RUN  64        : TMS14F1310P0004           CSYCA048 UYAB1901   64
 MODEL          : CSYCA048 - Cassava
 EXPERIMENT     : UYAB1901 CS UYT_GXE
 DATA PATH      : C:\DSSAT48\CASSAVA\
 TREATMENT 64   : TMS14F1310P0004           CSYCA048
  

 CSYCA  YEAR DOY = 2019 169
   NO reserve CH2O included in the wt of leaves,stems,and Plant. stick.        

******************************************************************************

*DSSAT Cropping System Model Ver. 4.8.0.010 -develop  AUG 07, 2021 22:25:52

*RUN  65        : TMS14F1310P0015           CSYCA048 UYAB1901   65
 MODEL          : CSYCA048 - Cassava
 EXPERIMENT     : UYAB1901 CS UYT_GXE
 DATA PATH      : C:\DSSAT48\CASSAVA\
 TREATMENT 65   : TMS14F1310P0015           CSYCA048
  

 CSYCA  YEAR DOY = 2019 169
   NO reserve CH2O included in the wt of leaves,stems,and Plant. stick.        

******************************************************************************

*DSSAT Cropping System Model Ver. 4.8.0.010 -develop  AUG 07, 2021 22:25:52

*RUN  66        : TMS14F1311P0002           CSYCA048 UYAB1901   66
 MODEL          : CSYCA048 - Cassava
 EXPERIMENT     : UYAB1901 CS UYT_GXE
 DATA PATH      : C:\DSSAT48\CASSAVA\
 TREATMENT 66   : TMS14F1311P0002           CSYCA048
  

 CSYCA  YEAR DOY = 2019 169
   NO reserve CH2O included in the wt of leaves,stems,and Plant. stick.        

******************************************************************************

*DSSAT Cropping System Model Ver. 4.8.0.010 -develop  AUG 07, 2021 22:25:53

*RUN  67        : TMS14F1312P0003           CSYCA048 UYAB1901   67
 MODEL          : CSYCA048 - Cassava
 EXPERIMENT     : UYAB1901 CS UYT_GXE
 DATA PATH      : C:\DSSAT48\CASSAVA\
 TREATMENT 67   : TMS14F1312P0003           CSYCA048
  

 CSYCA  YEAR DOY = 2019 169
   NO reserve CH2O included in the wt of leaves,stems,and Plant. stick.        

******************************************************************************

*DSSAT Cropping System Model Ver. 4.8.0.010 -develop  AUG 07, 2021 22:25:54

*RUN  68        : IITA-TMS-IBA000070        CSYCA048 UYAG1701    1
 MODEL          : CSYCA048 - Cassava
 EXPERIMENT     : UYAG1701 CS UYT_GXE
 DATA PATH      : C:\DSSAT48\CASSAVA\
 TREATMENT  1   : IITA-TMS-IBA000070        CSYCA048
  

 CSYCA  YEAR DOY = 2017 242
   NO reserve CH2O included in the wt of leaves,stems,and Plant. stick.        

******************************************************************************

*DSSAT Cropping System Model Ver. 4.8.0.010 -develop  AUG 07, 2021 22:25:54

*RUN  69        : IITA-TMS-IBA30572         CSYCA048 UYAG1701    2
 MODEL          : CSYCA048 - Cassava
 EXPERIMENT     : UYAG1701 CS UYT_GXE
 DATA PATH      : C:\DSSAT48\CASSAVA\
 TREATMENT  2   : IITA-TMS-IBA30572         CSYCA048
  

 CSYCA  YEAR DOY = 2017 242
   NO reserve CH2O included in the wt of leaves,stems,and Plant. stick.        

******************************************************************************

*DSSAT Cropping System Model Ver. 4.8.0.010 -develop  AUG 07, 2021 22:25:54

*RUN  70        : IITA-TMS-IBA980581        CSYCA048 UYAG1701    3
 MODEL          : CSYCA048 - Cassava
 EXPERIMENT     : UYAG1701 CS UYT_GXE
 DATA PATH      : C:\DSSAT48\CASSAVA\
 TREATMENT  3   : IITA-TMS-IBA980581        CSYCA048
  

 CSYCA  YEAR DOY = 2017 242
   NO reserve CH2O included in the wt of leaves,stems,and Plant. stick.        

******************************************************************************

*DSSAT Cropping System Model Ver. 4.8.0.010 -develop  AUG 07, 2021 22:25:55

*RUN  71        : IITA-TMS-IBA982101        CSYCA048 UYAG1701    4
 MODEL          : CSYCA048 - Cassava
 EXPERIMENT     : UYAG1701 CS UYT_GXE
 DATA PATH      : C:\DSSAT48\CASSAVA\
 TREATMENT  4   : IITA-TMS-IBA982101        CSYCA048
  

 CSYCA  YEAR DOY = 2017 242
   NO reserve CH2O included in the wt of leaves,stems,and Plant. stick.        

******************************************************************************

*DSSAT Cropping System Model Ver. 4.8.0.010 -develop  AUG 07, 2021 22:25:56

*RUN  72        : TMEB419                   CSYCA048 UYAG1701    5
 MODEL          : CSYCA048 - Cassava
 EXPERIMENT     : UYAG1701 CS UYT_GXE
 DATA PATH      : C:\DSSAT48\CASSAVA\
 TREATMENT  5   : TMEB419                   CSYCA048
  

 CSYCA  YEAR DOY = 2017 242
   NO reserve CH2O included in the wt of leaves,stems,and Plant. stick.        

******************************************************************************

*DSSAT Cropping System Model Ver. 4.8.0.010 -develop  AUG 07, 2021 22:25:56

*RUN  73        : TMS13F1021P0008           CSYCA048 UYAG1701    6
 MODEL          : CSYCA048 - Cassava
 EXPERIMENT     : UYAG1701 CS UYT_GXE
 DATA PATH      : C:\DSSAT48\CASSAVA\
 TREATMENT  6   : TMS13F1021P0008           CSYCA048
  

 CSYCA  YEAR DOY = 2017 242
   NO reserve CH2O included in the wt of leaves,stems,and Plant. stick.        

******************************************************************************

*DSSAT Cropping System Model Ver. 4.8.0.010 -develop  AUG 07, 2021 22:25:57

*RUN  74        : TMS13F1049P0001           CSYCA048 UYAG1701    7
 MODEL          : CSYCA048 - Cassava
 EXPERIMENT     : UYAG1701 CS UYT_GXE
 DATA PATH      : C:\DSSAT48\CASSAVA\
 TREATMENT  7   : TMS13F1049P0001           CSYCA048
  

 CSYCA  YEAR DOY = 2017 242
   NO reserve CH2O included in the wt of leaves,stems,and Plant. stick.        

******************************************************************************

*DSSAT Cropping System Model Ver. 4.8.0.010 -develop  AUG 07, 2021 22:25:57

*RUN  75        : TMS13F1114P0001           CSYCA048 UYAG1701    8
 MODEL          : CSYCA048 - Cassava
 EXPERIMENT     : UYAG1701 CS UYT_GXE
 DATA PATH      : C:\DSSAT48\CASSAVA\
 TREATMENT  8   : TMS13F1114P0001           CSYCA048
  

 CSYCA  YEAR DOY = 2017 242
   NO reserve CH2O included in the wt of leaves,stems,and Plant. stick.        

******************************************************************************

*DSSAT Cropping System Model Ver. 4.8.0.010 -develop  AUG 07, 2021 22:25:58

*RUN  76        : TMS13F1126P0003           CSYCA048 UYAG1701    9
 MODEL          : CSYCA048 - Cassava
 EXPERIMENT     : UYAG1701 CS UYT_GXE
 DATA PATH      : C:\DSSAT48\CASSAVA\
 TREATMENT  9   : TMS13F1126P0003           CSYCA048
  

 CSYCA  YEAR DOY = 2017 242
   NO reserve CH2O included in the wt of leaves,stems,and Plant. stick.        

******************************************************************************

*DSSAT Cropping System Model Ver. 4.8.0.010 -develop  AUG 07, 2021 22:25:58

*RUN  77        : TMS13F1182P0002           CSYCA048 UYAG1701   10
 MODEL          : CSYCA048 - Cassava
 EXPERIMENT     : UYAG1701 CS UYT_GXE
 DATA PATH      : C:\DSSAT48\CASSAVA\
 TREATMENT 10   : TMS13F1182P0002           CSYCA048
  

 CSYCA  YEAR DOY = 2017 242
   NO reserve CH2O included in the wt of leaves,stems,and Plant. stick.        

******************************************************************************

*DSSAT Cropping System Model Ver. 4.8.0.010 -develop  AUG 07, 2021 22:25:59

*RUN  78        : TMS13F1304P0003           CSYCA048 UYAG1701   11
 MODEL          : CSYCA048 - Cassava
 EXPERIMENT     : UYAG1701 CS UYT_GXE
 DATA PATH      : C:\DSSAT48\CASSAVA\
 TREATMENT 11   : TMS13F1304P0003           CSYCA048
  

 CSYCA  YEAR DOY = 2017 242
   NO reserve CH2O included in the wt of leaves,stems,and Plant. stick.        

******************************************************************************

*DSSAT Cropping System Model Ver. 4.8.0.010 -develop  AUG 07, 2021 22:25:59

*RUN  79        : TMS13F1315P0008           CSYCA048 UYAG1701   12
 MODEL          : CSYCA048 - Cassava
 EXPERIMENT     : UYAG1701 CS UYT_GXE
 DATA PATH      : C:\DSSAT48\CASSAVA\
 TREATMENT 12   : TMS13F1315P0008           CSYCA048
  

 CSYCA  YEAR DOY = 2017 242
   NO reserve CH2O included in the wt of leaves,stems,and Plant. stick.        

******************************************************************************

*DSSAT Cropping System Model Ver. 4.8.0.010 -develop  AUG 07, 2021 22:26:00

*RUN  80        : TMS13F1376P0018           CSYCA048 UYAG1701   13
 MODEL          : CSYCA048 - Cassava
 EXPERIMENT     : UYAG1701 CS UYT_GXE
 DATA PATH      : C:\DSSAT48\CASSAVA\
 TREATMENT 13   : TMS13F1376P0018           CSYCA048
  

 CSYCA  YEAR DOY = 2017 242
   NO reserve CH2O included in the wt of leaves,stems,and Plant. stick.        

******************************************************************************

*DSSAT Cropping System Model Ver. 4.8.0.010 -develop  AUG 07, 2021 22:26:00

*RUN  81        : TMS13F1400P0001           CSYCA048 UYAG1701   14
 MODEL          : CSYCA048 - Cassava
 EXPERIMENT     : UYAG1701 CS UYT_GXE
 DATA PATH      : C:\DSSAT48\CASSAVA\
 TREATMENT 14   : TMS13F1400P0001           CSYCA048
  

 CSYCA  YEAR DOY = 2017 242
   NO reserve CH2O included in the wt of leaves,stems,and Plant. stick.        

******************************************************************************

*DSSAT Cropping System Model Ver. 4.8.0.010 -develop  AUG 07, 2021 22:26:01

*RUN  82        : TMS13F1461P0002           CSYCA048 UYAG1701   15
 MODEL          : CSYCA048 - Cassava
 EXPERIMENT     : UYAG1701 CS UYT_GXE
 DATA PATH      : C:\DSSAT48\CASSAVA\
 TREATMENT 15   : TMS13F1461P0002           CSYCA048
  

 CSYCA  YEAR DOY = 2017 242
   NO reserve CH2O included in the wt of leaves,stems,and Plant. stick.        

******************************************************************************

*DSSAT Cropping System Model Ver. 4.8.0.010 -develop  AUG 07, 2021 22:26:01

*RUN  83        : TMS13F2061P0005           CSYCA048 UYAG1701   16
 MODEL          : CSYCA048 - Cassava
 EXPERIMENT     : UYAG1701 CS UYT_GXE
 DATA PATH      : C:\DSSAT48\CASSAVA\
 TREATMENT 16   : TMS13F2061P0005           CSYCA048
  

 CSYCA  YEAR DOY = 2017 242
   NO reserve CH2O included in the wt of leaves,stems,and Plant. stick.        

******************************************************************************

*DSSAT Cropping System Model Ver. 4.8.0.010 -develop  AUG 07, 2021 22:26:02

*RUN  84        : TMS13F2207P0001           CSYCA048 UYAG1701   17
 MODEL          : CSYCA048 - Cassava
 EXPERIMENT     : UYAG1701 CS UYT_GXE
 DATA PATH      : C:\DSSAT48\CASSAVA\
 TREATMENT 17   : TMS13F2207P0001           CSYCA048
  

 CSYCA  YEAR DOY = 2017 242
   NO reserve CH2O included in the wt of leaves,stems,and Plant. stick.        

******************************************************************************

*DSSAT Cropping System Model Ver. 4.8.0.010 -develop  AUG 07, 2021 22:26:02

*RUN  85        : TMS14F1001P0004           CSYCA048 UYAG1701   18
 MODEL          : CSYCA048 - Cassava
 EXPERIMENT     : UYAG1701 CS UYT_GXE
 DATA PATH      : C:\DSSAT48\CASSAVA\
 TREATMENT 18   : TMS14F1001P0004           CSYCA048
  

 CSYCA  YEAR DOY = 2017 242
   NO reserve CH2O included in the wt of leaves,stems,and Plant. stick.        

******************************************************************************

*DSSAT Cropping System Model Ver. 4.8.0.010 -develop  AUG 07, 2021 22:26:03

*RUN  86        : TMS14F1013P0007           CSYCA048 UYAG1701   19
 MODEL          : CSYCA048 - Cassava
 EXPERIMENT     : UYAG1701 CS UYT_GXE
 DATA PATH      : C:\DSSAT48\CASSAVA\
 TREATMENT 19   : TMS14F1013P0007           CSYCA048
  

 CSYCA  YEAR DOY = 2017 242
   NO reserve CH2O included in the wt of leaves,stems,and Plant. stick.        

******************************************************************************

*DSSAT Cropping System Model Ver. 4.8.0.010 -develop  AUG 07, 2021 22:26:03

*RUN  87        : TMS14F1014P0016           CSYCA048 UYAG1701   20
 MODEL          : CSYCA048 - Cassava
 EXPERIMENT     : UYAG1701 CS UYT_GXE
 DATA PATH      : C:\DSSAT48\CASSAVA\
 TREATMENT 20   : TMS14F1014P0016           CSYCA048
  

 CSYCA  YEAR DOY = 2017 242
   NO reserve CH2O included in the wt of leaves,stems,and Plant. stick.        

******************************************************************************

*DSSAT Cropping System Model Ver. 4.8.0.010 -develop  AUG 07, 2021 22:26:04

*RUN  88        : TMS14F1014P0017           CSYCA048 UYAG1701   21
 MODEL          : CSYCA048 - Cassava
 EXPERIMENT     : UYAG1701 CS UYT_GXE
 DATA PATH      : C:\DSSAT48\CASSAVA\
 TREATMENT 21   : TMS14F1014P0017           CSYCA048
  

 CSYCA  YEAR DOY = 2017 242
   NO reserve CH2O included in the wt of leaves,stems,and Plant. stick.        

******************************************************************************

*DSSAT Cropping System Model Ver. 4.8.0.010 -develop  AUG 07, 2021 22:26:04

*RUN  89        : TMS14F1016P0006           CSYCA048 UYAG1701   22
 MODEL          : CSYCA048 - Cassava
 EXPERIMENT     : UYAG1701 CS UYT_GXE
 DATA PATH      : C:\DSSAT48\CASSAVA\
 TREATMENT 22   : TMS14F1016P0006           CSYCA048
  

 CSYCA  YEAR DOY = 2017 242
   NO reserve CH2O included in the wt of leaves,stems,and Plant. stick.        

******************************************************************************

*DSSAT Cropping System Model Ver. 4.8.0.010 -develop  AUG 07, 2021 22:26:05

*RUN  90        : TMS14F1019P0015           CSYCA048 UYAG1701   23
 MODEL          : CSYCA048 - Cassava
 EXPERIMENT     : UYAG1701 CS UYT_GXE
 DATA PATH      : C:\DSSAT48\CASSAVA\
 TREATMENT 23   : TMS14F1019P0015           CSYCA048
  

 CSYCA  YEAR DOY = 2017 242
   NO reserve CH2O included in the wt of leaves,stems,and Plant. stick.        

******************************************************************************

*DSSAT Cropping System Model Ver. 4.8.0.010 -develop  AUG 07, 2021 22:26:05

*RUN  91        : TMS14F1022P0003           CSYCA048 UYAG1701   24
 MODEL          : CSYCA048 - Cassava
 EXPERIMENT     : UYAG1701 CS UYT_GXE
 DATA PATH      : C:\DSSAT48\CASSAVA\
 TREATMENT 24   : TMS14F1022P0003           CSYCA048
  

 CSYCA  YEAR DOY = 2017 242
   NO reserve CH2O included in the wt of leaves,stems,and Plant. stick.        

******************************************************************************

*DSSAT Cropping System Model Ver. 4.8.0.010 -develop  AUG 07, 2021 22:26:06

*RUN  92        : TMS14F1022P0006           CSYCA048 UYAG1701   25
 MODEL          : CSYCA048 - Cassava
 EXPERIMENT     : UYAG1701 CS UYT_GXE
 DATA PATH      : C:\DSSAT48\CASSAVA\
 TREATMENT 25   : TMS14F1022P0006           CSYCA048
  

 CSYCA  YEAR DOY = 2017 242
   NO reserve CH2O included in the wt of leaves,stems,and Plant. stick.        

******************************************************************************

*DSSAT Cropping System Model Ver. 4.8.0.010 -develop  AUG 07, 2021 22:26:06

*RUN  93        : TMS14F1035P0004           CSYCA048 UYAG1701   26
 MODEL          : CSYCA048 - Cassava
 EXPERIMENT     : UYAG1701 CS UYT_GXE
 DATA PATH      : C:\DSSAT48\CASSAVA\
 TREATMENT 26   : TMS14F1035P0004           CSYCA048
  

 CSYCA  YEAR DOY = 2017 242
   NO reserve CH2O included in the wt of leaves,stems,and Plant. stick.        

******************************************************************************

*DSSAT Cropping System Model Ver. 4.8.0.010 -develop  AUG 07, 2021 22:26:07

*RUN  94        : TMS14F1035P0007           CSYCA048 UYAG1701   27
 MODEL          : CSYCA048 - Cassava
 EXPERIMENT     : UYAG1701 CS UYT_GXE
 DATA PATH      : C:\DSSAT48\CASSAVA\
 TREATMENT 27   : TMS14F1035P0007           CSYCA048
  

 CSYCA  YEAR DOY = 2017 242
   NO reserve CH2O included in the wt of leaves,stems,and Plant. stick.        

******************************************************************************

*DSSAT Cropping System Model Ver. 4.8.0.010 -develop  AUG 07, 2021 22:26:07

*RUN  95        : TMS14F1036P0007           CSYCA048 UYAG1701   28
 MODEL          : CSYCA048 - Cassava
 EXPERIMENT     : UYAG1701 CS UYT_GXE
 DATA PATH      : C:\DSSAT48\CASSAVA\
 TREATMENT 28   : TMS14F1036P0007           CSYCA048
  

 CSYCA  YEAR DOY = 2017 242
   NO reserve CH2O included in the wt of leaves,stems,and Plant. stick.        

******************************************************************************

*DSSAT Cropping System Model Ver. 4.8.0.010 -develop  AUG 07, 2021 22:26:08

*RUN  96        : TMS14F1049P0001           CSYCA048 UYAG1701   29
 MODEL          : CSYCA048 - Cassava
 EXPERIMENT     : UYAG1701 CS UYT_GXE
 DATA PATH      : C:\DSSAT48\CASSAVA\
 TREATMENT 29   : TMS14F1049P0001           CSYCA048
  

 CSYCA  YEAR DOY = 2017 242
   NO reserve CH2O included in the wt of leaves,stems,and Plant. stick.        

******************************************************************************

*DSSAT Cropping System Model Ver. 4.8.0.010 -develop  AUG 07, 2021 22:26:09

*RUN  97        : TMS14F1098P0013           CSYCA048 UYAG1701   30
 MODEL          : CSYCA048 - Cassava
 EXPERIMENT     : UYAG1701 CS UYT_GXE
 DATA PATH      : C:\DSSAT48\CASSAVA\
 TREATMENT 30   : TMS14F1098P0013           CSYCA048
  

 CSYCA  YEAR DOY = 2017 242
   NO reserve CH2O included in the wt of leaves,stems,and Plant. stick.        

******************************************************************************

*DSSAT Cropping System Model Ver. 4.8.0.010 -develop  AUG 07, 2021 22:26:09

*RUN  98        : TMS14F1120P0003           CSYCA048 UYAG1701   31
 MODEL          : CSYCA048 - Cassava
 EXPERIMENT     : UYAG1701 CS UYT_GXE
 DATA PATH      : C:\DSSAT48\CASSAVA\
 TREATMENT 31   : TMS14F1120P0003           CSYCA048
  

 CSYCA  YEAR DOY = 2017 242
   NO reserve CH2O included in the wt of leaves,stems,and Plant. stick.        

******************************************************************************

*DSSAT Cropping System Model Ver. 4.8.0.010 -develop  AUG 07, 2021 22:26:10

*RUN  99        : TMS14F1125P0010           CSYCA048 UYAG1701   32
 MODEL          : CSYCA048 - Cassava
 EXPERIMENT     : UYAG1701 CS UYT_GXE
 DATA PATH      : C:\DSSAT48\CASSAVA\
 TREATMENT 32   : TMS14F1125P0010           CSYCA048
  

 CSYCA  YEAR DOY = 2017 242
   NO reserve CH2O included in the wt of leaves,stems,and Plant. stick.        

******************************************************************************

*DSSAT Cropping System Model Ver. 4.8.0.010 -develop  AUG 07, 2021 22:26:10

*RUN 100        : TMS14F1131P0001           CSYCA048 UYAG1701   33
 MODEL          : CSYCA048 - Cassava
 EXPERIMENT     : UYAG1701 CS UYT_GXE
 DATA PATH      : C:\DSSAT48\CASSAVA\
 TREATMENT 33   : TMS14F1131P0001           CSYCA048
  

 CSYCA  YEAR DOY = 2017 242
   NO reserve CH2O included in the wt of leaves,stems,and Plant. stick.        

******************************************************************************

*DSSAT Cropping System Model Ver. 4.8.0.010 -develop  AUG 07, 2021 22:26:11

*RUN 101        : TMS14F1146P0002           CSYCA048 UYAG1701   34
 MODEL          : CSYCA048 - Cassava
 EXPERIMENT     : UYAG1701 CS UYT_GXE
 DATA PATH      : C:\DSSAT48\CASSAVA\
 TREATMENT 34   : TMS14F1146P0002           CSYCA048
  

 CSYCA  YEAR DOY = 2017 242
   NO reserve CH2O included in the wt of leaves,stems,and Plant. stick.        

******************************************************************************

*DSSAT Cropping System Model Ver. 4.8.0.010 -develop  AUG 07, 2021 22:26:11

*RUN 102        : TMS14F1159P0003           CSYCA048 UYAG1701   35
 MODEL          : CSYCA048 - Cassava
 EXPERIMENT     : UYAG1701 CS UYT_GXE
 DATA PATH      : C:\DSSAT48\CASSAVA\
 TREATMENT 35   : TMS14F1159P0003           CSYCA048
  

 CSYCA  YEAR DOY = 2017 242
   NO reserve CH2O included in the wt of leaves,stems,and Plant. stick.        

******************************************************************************

*DSSAT Cropping System Model Ver. 4.8.0.010 -develop  AUG 07, 2021 22:26:12

*RUN 103        : TMS14F1194P0002           CSYCA048 UYAG1701   36
 MODEL          : CSYCA048 - Cassava
 EXPERIMENT     : UYAG1701 CS UYT_GXE
 DATA PATH      : C:\DSSAT48\CASSAVA\
 TREATMENT 36   : TMS14F1194P0002           CSYCA048
  

 CSYCA  YEAR DOY = 2017 242
   NO reserve CH2O included in the wt of leaves,stems,and Plant. stick.        

******************************************************************************

*DSSAT Cropping System Model Ver. 4.8.0.010 -develop  AUG 07, 2021 22:26:12

*RUN 104        : TMS14F1195P0004           CSYCA048 UYAG1701   37
 MODEL          : CSYCA048 - Cassava
 EXPERIMENT     : UYAG1701 CS UYT_GXE
 DATA PATH      : C:\DSSAT48\CASSAVA\
 TREATMENT 37   : TMS14F1195P0004           CSYCA048
  

 CSYCA  YEAR DOY = 2017 242
   NO reserve CH2O included in the wt of leaves,stems,and Plant. stick.        

******************************************************************************

*DSSAT Cropping System Model Ver. 4.8.0.010 -develop  AUG 07, 2021 22:26:13

*RUN 105        : TMS14F1195P0005           CSYCA048 UYAG1701   38
 MODEL          : CSYCA048 - Cassava
 EXPERIMENT     : UYAG1701 CS UYT_GXE
 DATA PATH      : C:\DSSAT48\CASSAVA\
 TREATMENT 38   : TMS14F1195P0005           CSYCA048
  

 CSYCA  YEAR DOY = 2017 242
   NO reserve CH2O included in the wt of leaves,stems,and Plant. stick.        

******************************************************************************

*DSSAT Cropping System Model Ver. 4.8.0.010 -develop  AUG 07, 2021 22:26:13

*RUN 106        : TMS14F1196P0003           CSYCA048 UYAG1701   39
 MODEL          : CSYCA048 - Cassava
 EXPERIMENT     : UYAG1701 CS UYT_GXE
 DATA PATH      : C:\DSSAT48\CASSAVA\
 TREATMENT 39   : TMS14F1196P0003           CSYCA048
  

 CSYCA  YEAR DOY = 2017 242
   NO reserve CH2O included in the wt of leaves,stems,and Plant. stick.        

******************************************************************************

*DSSAT Cropping System Model Ver. 4.8.0.010 -develop  AUG 07, 2021 22:26:14

*RUN 107        : TMS14F1208P0007           CSYCA048 UYAG1701   40
 MODEL          : CSYCA048 - Cassava
 EXPERIMENT     : UYAG1701 CS UYT_GXE
 DATA PATH      : C:\DSSAT48\CASSAVA\
 TREATMENT 40   : TMS14F1208P0007           CSYCA048
  

 CSYCA  YEAR DOY = 2017 242
   NO reserve CH2O included in the wt of leaves,stems,and Plant. stick.        

******************************************************************************

*DSSAT Cropping System Model Ver. 4.8.0.010 -develop  AUG 07, 2021 22:26:14

*RUN 108        : TMS14F1223P0007           CSYCA048 UYAG1701   41
 MODEL          : CSYCA048 - Cassava
 EXPERIMENT     : UYAG1701 CS UYT_GXE
 DATA PATH      : C:\DSSAT48\CASSAVA\
 TREATMENT 41   : TMS14F1223P0007           CSYCA048
  

 CSYCA  YEAR DOY = 2017 242
   NO reserve CH2O included in the wt of leaves,stems,and Plant. stick.        

******************************************************************************

*DSSAT Cropping System Model Ver. 4.8.0.010 -develop  AUG 07, 2021 22:26:15

*RUN 109        : TMS14F1224P0004           CSYCA048 UYAG1701   42
 MODEL          : CSYCA048 - Cassava
 EXPERIMENT     : UYAG1701 CS UYT_GXE
 DATA PATH      : C:\DSSAT48\CASSAVA\
 TREATMENT 42   : TMS14F1224P0004           CSYCA048
  

 CSYCA  YEAR DOY = 2017 242
   NO reserve CH2O included in the wt of leaves,stems,and Plant. stick.        

******************************************************************************

*DSSAT Cropping System Model Ver. 4.8.0.010 -develop  AUG 07, 2021 22:26:15

*RUN 110        : TMS14F1262P0002           CSYCA048 UYAG1701   43
 MODEL          : CSYCA048 - Cassava
 EXPERIMENT     : UYAG1701 CS UYT_GXE
 DATA PATH      : C:\DSSAT48\CASSAVA\
 TREATMENT 43   : TMS14F1262P0002           CSYCA048
  

 CSYCA  YEAR DOY = 2017 242
   NO reserve CH2O included in the wt of leaves,stems,and Plant. stick.        

******************************************************************************

*DSSAT Cropping System Model Ver. 4.8.0.010 -develop  AUG 07, 2021 22:26:16

*RUN 111        : TMS14F1278P0003           CSYCA048 UYAG1701   44
 MODEL          : CSYCA048 - Cassava
 EXPERIMENT     : UYAG1701 CS UYT_GXE
 DATA PATH      : C:\DSSAT48\CASSAVA\
 TREATMENT 44   : TMS14F1278P0003           CSYCA048
  

 CSYCA  YEAR DOY = 2017 242
   NO reserve CH2O included in the wt of leaves,stems,and Plant. stick.        

******************************************************************************

*DSSAT Cropping System Model Ver. 4.8.0.010 -develop  AUG 07, 2021 22:26:16

*RUN 112        : TMS14F1285P0006           CSYCA048 UYAG1701   45
 MODEL          : CSYCA048 - Cassava
 EXPERIMENT     : UYAG1701 CS UYT_GXE
 DATA PATH      : C:\DSSAT48\CASSAVA\
 TREATMENT 45   : TMS14F1285P0006           CSYCA048
  

 CSYCA  YEAR DOY = 2017 242
   NO reserve CH2O included in the wt of leaves,stems,and Plant. stick.        

******************************************************************************

*DSSAT Cropping System Model Ver. 4.8.0.010 -develop  AUG 07, 2021 22:26:17

*RUN 113        : TMS14F1285P0017           CSYCA048 UYAG1701   46
 MODEL          : CSYCA048 - Cassava
 EXPERIMENT     : UYAG1701 CS UYT_GXE
 DATA PATH      : C:\DSSAT48\CASSAVA\
 TREATMENT 46   : TMS14F1285P0017           CSYCA048
  

 CSYCA  YEAR DOY = 2017 242
   NO reserve CH2O included in the wt of leaves,stems,and Plant. stick.        

******************************************************************************

*DSSAT Cropping System Model Ver. 4.8.0.010 -develop  AUG 07, 2021 22:26:18

*RUN 114        : TMS14F1287P0008           CSYCA048 UYAG1701   47
 MODEL          : CSYCA048 - Cassava
 EXPERIMENT     : UYAG1701 CS UYT_GXE
 DATA PATH      : C:\DSSAT48\CASSAVA\
 TREATMENT 47   : TMS14F1287P0008           CSYCA048
  

 CSYCA  YEAR DOY = 2017 242
   NO reserve CH2O included in the wt of leaves,stems,and Plant. stick.        

******************************************************************************

*DSSAT Cropping System Model Ver. 4.8.0.010 -develop  AUG 07, 2021 22:26:18

*RUN 115        : TMS14F1288P0008           CSYCA048 UYAG1701   48
 MODEL          : CSYCA048 - Cassava
 EXPERIMENT     : UYAG1701 CS UYT_GXE
 DATA PATH      : C:\DSSAT48\CASSAVA\
 TREATMENT 48   : TMS14F1288P0008           CSYCA048
  

 CSYCA  YEAR DOY = 2017 242
   NO reserve CH2O included in the wt of leaves,stems,and Plant. stick.        

******************************************************************************

*DSSAT Cropping System Model Ver. 4.8.0.010 -develop  AUG 07, 2021 22:26:19

*RUN 116        : TMS14F1291P0003           CSYCA048 UYAG1701   49
 MODEL          : CSYCA048 - Cassava
 EXPERIMENT     : UYAG1701 CS UYT_GXE
 DATA PATH      : C:\DSSAT48\CASSAVA\
 TREATMENT 49   : TMS14F1291P0003           CSYCA048
  

 CSYCA  YEAR DOY = 2017 242
   NO reserve CH2O included in the wt of leaves,stems,and Plant. stick.        

******************************************************************************

*DSSAT Cropping System Model Ver. 4.8.0.010 -develop  AUG 07, 2021 22:26:19

*RUN 117        : TMS14F1291P0011           CSYCA048 UYAG1701   50
 MODEL          : CSYCA048 - Cassava
 EXPERIMENT     : UYAG1701 CS UYT_GXE
 DATA PATH      : C:\DSSAT48\CASSAVA\
 TREATMENT 50   : TMS14F1291P0011           CSYCA048
  

 CSYCA  YEAR DOY = 2017 242
   NO reserve CH2O included in the wt of leaves,stems,and Plant. stick.        

******************************************************************************

*DSSAT Cropping System Model Ver. 4.8.0.010 -develop  AUG 07, 2021 22:26:20

*RUN 118        : TMS14F1291P0012           CSYCA048 UYAG1701   51
 MODEL          : CSYCA048 - Cassava
 EXPERIMENT     : UYAG1701 CS UYT_GXE
 DATA PATH      : C:\DSSAT48\CASSAVA\
 TREATMENT 51   : TMS14F1291P0012           CSYCA048
  

 CSYCA  YEAR DOY = 2017 242
   NO reserve CH2O included in the wt of leaves,stems,and Plant. stick.        

******************************************************************************

*DSSAT Cropping System Model Ver. 4.8.0.010 -develop  AUG 07, 2021 22:26:20

*RUN 119        : TMS14F1292P0012           CSYCA048 UYAG1701   52
 MODEL          : CSYCA048 - Cassava
 EXPERIMENT     : UYAG1701 CS UYT_GXE
 DATA PATH      : C:\DSSAT48\CASSAVA\
 TREATMENT 52   : TMS14F1292P0012           CSYCA048
  

 CSYCA  YEAR DOY = 2017 242
   NO reserve CH2O included in the wt of leaves,stems,and Plant. stick.        

******************************************************************************

*DSSAT Cropping System Model Ver. 4.8.0.010 -develop  AUG 07, 2021 22:26:21

*RUN 120        : TMS14F1295P0012           CSYCA048 UYAG1701   53
 MODEL          : CSYCA048 - Cassava
 EXPERIMENT     : UYAG1701 CS UYT_GXE
 DATA PATH      : C:\DSSAT48\CASSAVA\
 TREATMENT 53   : TMS14F1295P0012           CSYCA048
  

 CSYCA  YEAR DOY = 2017 242
   NO reserve CH2O included in the wt of leaves,stems,and Plant. stick.        

******************************************************************************

*DSSAT Cropping System Model Ver. 4.8.0.010 -develop  AUG 07, 2021 22:26:21

*RUN 121        : TMS14F1297P0019           CSYCA048 UYAG1701   54
 MODEL          : CSYCA048 - Cassava
 EXPERIMENT     : UYAG1701 CS UYT_GXE
 DATA PATH      : C:\DSSAT48\CASSAVA\
 TREATMENT 54   : TMS14F1297P0019           CSYCA048
  

 CSYCA  YEAR DOY = 2017 242
   NO reserve CH2O included in the wt of leaves,stems,and Plant. stick.        

******************************************************************************

*DSSAT Cropping System Model Ver. 4.8.0.010 -develop  AUG 07, 2021 22:26:22

*RUN 122        : TMS14F1299P0007           CSYCA048 UYAG1701   55
 MODEL          : CSYCA048 - Cassava
 EXPERIMENT     : UYAG1701 CS UYT_GXE
 DATA PATH      : C:\DSSAT48\CASSAVA\
 TREATMENT 55   : TMS14F1299P0007           CSYCA048
  

 CSYCA  YEAR DOY = 2017 242
   NO reserve CH2O included in the wt of leaves,stems,and Plant. stick.        

******************************************************************************

*DSSAT Cropping System Model Ver. 4.8.0.010 -develop  AUG 07, 2021 22:26:22

*RUN 123        : TMS14F1300P0002           CSYCA048 UYAG1701   56
 MODEL          : CSYCA048 - Cassava
 EXPERIMENT     : UYAG1701 CS UYT_GXE
 DATA PATH      : C:\DSSAT48\CASSAVA\
 TREATMENT 56   : TMS14F1300P0002           CSYCA048
  

 CSYCA  YEAR DOY = 2017 242
   NO reserve CH2O included in the wt of leaves,stems,and Plant. stick.        

******************************************************************************

*DSSAT Cropping System Model Ver. 4.8.0.010 -develop  AUG 07, 2021 22:26:23

*RUN 124        : TMS14F1300P0008           CSYCA048 UYAG1701   57
 MODEL          : CSYCA048 - Cassava
 EXPERIMENT     : UYAG1701 CS UYT_GXE
 DATA PATH      : C:\DSSAT48\CASSAVA\
 TREATMENT 57   : TMS14F1300P0008           CSYCA048
  

 CSYCA  YEAR DOY = 2017 242
   NO reserve CH2O included in the wt of leaves,stems,and Plant. stick.        

******************************************************************************

*DSSAT Cropping System Model Ver. 4.8.0.010 -develop  AUG 07, 2021 22:26:23

*RUN 125        : TMS14F1301P0004           CSYCA048 UYAG1701   58
 MODEL          : CSYCA048 - Cassava
 EXPERIMENT     : UYAG1701 CS UYT_GXE
 DATA PATH      : C:\DSSAT48\CASSAVA\
 TREATMENT 58   : TMS14F1301P0004           CSYCA048
  

 CSYCA  YEAR DOY = 2017 242
   NO reserve CH2O included in the wt of leaves,stems,and Plant. stick.        

******************************************************************************

*DSSAT Cropping System Model Ver. 4.8.0.010 -develop  AUG 07, 2021 22:26:24

*RUN 126        : TMS14F1301P0013           CSYCA048 UYAG1701   59
 MODEL          : CSYCA048 - Cassava
 EXPERIMENT     : UYAG1701 CS UYT_GXE
 DATA PATH      : C:\DSSAT48\CASSAVA\
 TREATMENT 59   : TMS14F1301P0013           CSYCA048
  

 CSYCA  YEAR DOY = 2017 242
   NO reserve CH2O included in the wt of leaves,stems,and Plant. stick.        

******************************************************************************

*DSSAT Cropping System Model Ver. 4.8.0.010 -develop  AUG 07, 2021 22:26:24

*RUN 127        : TMS14F1303P0012           CSYCA048 UYAG1701   60
 MODEL          : CSYCA048 - Cassava
 EXPERIMENT     : UYAG1701 CS UYT_GXE
 DATA PATH      : C:\DSSAT48\CASSAVA\
 TREATMENT 60   : TMS14F1303P0012           CSYCA048
  

 CSYCA  YEAR DOY = 2017 242
   NO reserve CH2O included in the wt of leaves,stems,and Plant. stick.        

******************************************************************************

*DSSAT Cropping System Model Ver. 4.8.0.010 -develop  AUG 07, 2021 22:26:25

*RUN 128        : TMS14F1306P0008           CSYCA048 UYAG1701   61
 MODEL          : CSYCA048 - Cassava
 EXPERIMENT     : UYAG1701 CS UYT_GXE
 DATA PATH      : C:\DSSAT48\CASSAVA\
 TREATMENT 61   : TMS14F1306P0008           CSYCA048
  

 CSYCA  YEAR DOY = 2017 242
   NO reserve CH2O included in the wt of leaves,stems,and Plant. stick.        

******************************************************************************

*DSSAT Cropping System Model Ver. 4.8.0.010 -develop  AUG 07, 2021 22:26:26

*RUN 129        : TMS14F1306P0015           CSYCA048 UYAG1701   62
 MODEL          : CSYCA048 - Cassava
 EXPERIMENT     : UYAG1701 CS UYT_GXE
 DATA PATH      : C:\DSSAT48\CASSAVA\
 TREATMENT 62   : TMS14F1306P0015           CSYCA048
  

 CSYCA  YEAR DOY = 2017 242
   NO reserve CH2O included in the wt of leaves,stems,and Plant. stick.        

******************************************************************************

*DSSAT Cropping System Model Ver. 4.8.0.010 -develop  AUG 07, 2021 22:26:26

*RUN 130        : TMS14F1306P0020           CSYCA048 UYAG1701   63
 MODEL          : CSYCA048 - Cassava
 EXPERIMENT     : UYAG1701 CS UYT_GXE
 DATA PATH      : C:\DSSAT48\CASSAVA\
 TREATMENT 63   : TMS14F1306P0020           CSYCA048
  

 CSYCA  YEAR DOY = 2017 242
   NO reserve CH2O included in the wt of leaves,stems,and Plant. stick.        

******************************************************************************

*DSSAT Cropping System Model Ver. 4.8.0.010 -develop  AUG 07, 2021 22:26:26

*RUN 131        : TMS14F1310P0004           CSYCA048 UYAG1701   64
 MODEL          : CSYCA048 - Cassava
 EXPERIMENT     : UYAG1701 CS UYT_GXE
 DATA PATH      : C:\DSSAT48\CASSAVA\
 TREATMENT 64   : TMS14F1310P0004           CSYCA048
  

 CSYCA  YEAR DOY = 2017 242
   NO reserve CH2O included in the wt of leaves,stems,and Plant. stick.        

******************************************************************************

*DSSAT Cropping System Model Ver. 4.8.0.010 -develop  AUG 07, 2021 22:26:27

*RUN 132        : TMS14F1310P0015           CSYCA048 UYAG1701   65
 MODEL          : CSYCA048 - Cassava
 EXPERIMENT     : UYAG1701 CS UYT_GXE
 DATA PATH      : C:\DSSAT48\CASSAVA\
 TREATMENT 65   : TMS14F1310P0015           CSYCA048
  

 CSYCA  YEAR DOY = 2017 242
   NO reserve CH2O included in the wt of leaves,stems,and Plant. stick.        

******************************************************************************

*DSSAT Cropping System Model Ver. 4.8.0.010 -develop  AUG 07, 2021 22:26:28

*RUN 133        : TMS14F1311P0002           CSYCA048 UYAG1701   66
 MODEL          : CSYCA048 - Cassava
 EXPERIMENT     : UYAG1701 CS UYT_GXE
 DATA PATH      : C:\DSSAT48\CASSAVA\
 TREATMENT 66   : TMS14F1311P0002           CSYCA048
  

 CSYCA  YEAR DOY = 2017 242
   NO reserve CH2O included in the wt of leaves,stems,and Plant. stick.        

******************************************************************************

*DSSAT Cropping System Model Ver. 4.8.0.010 -develop  AUG 07, 2021 22:26:28

*RUN 134        : TMS14F1312P0003           CSYCA048 UYAG1701   67
 MODEL          : CSYCA048 - Cassava
 EXPERIMENT     : UYAG1701 CS UYT_GXE
 DATA PATH      : C:\DSSAT48\CASSAVA\
 TREATMENT 67   : TMS14F1312P0003           CSYCA048
  

 CSYCA  YEAR DOY = 2017 242
   NO reserve CH2O included in the wt of leaves,stems,and Plant. stick.        

******************************************************************************

*DSSAT Cropping System Model Ver. 4.8.0.010 -develop  AUG 07, 2021 22:26:29

*RUN 135        : IITA-TMS-IBA000070        CSYCA048 UYAG1801    1
 MODEL          : CSYCA048 - Cassava
 EXPERIMENT     : UYAG1801 CS UYT_GXE
 DATA PATH      : C:\DSSAT48\CASSAVA\
 TREATMENT  1   : IITA-TMS-IBA000070        CSYCA048
  

 CSYCA  YEAR DOY = 2018 172
   NO reserve CH2O included in the wt of leaves,stems,and Plant. stick.        

******************************************************************************

*DSSAT Cropping System Model Ver. 4.8.0.010 -develop  AUG 07, 2021 22:26:29

*RUN 136        : IITA-TMS-IBA30572         CSYCA048 UYAG1801    2
 MODEL          : CSYCA048 - Cassava
 EXPERIMENT     : UYAG1801 CS UYT_GXE
 DATA PATH      : C:\DSSAT48\CASSAVA\
 TREATMENT  2   : IITA-TMS-IBA30572         CSYCA048
  

 CSYCA  YEAR DOY = 2018 172
   NO reserve CH2O included in the wt of leaves,stems,and Plant. stick.        

******************************************************************************

*DSSAT Cropping System Model Ver. 4.8.0.010 -develop  AUG 07, 2021 22:26:30

*RUN 137        : IITA-TMS-IBA980581        CSYCA048 UYAG1801    3
 MODEL          : CSYCA048 - Cassava
 EXPERIMENT     : UYAG1801 CS UYT_GXE
 DATA PATH      : C:\DSSAT48\CASSAVA\
 TREATMENT  3   : IITA-TMS-IBA980581        CSYCA048
  

 CSYCA  YEAR DOY = 2018 172
   NO reserve CH2O included in the wt of leaves,stems,and Plant. stick.        

******************************************************************************

*DSSAT Cropping System Model Ver. 4.8.0.010 -develop  AUG 07, 2021 22:26:31

*RUN 138        : IITA-TMS-IBA982101        CSYCA048 UYAG1801    4
 MODEL          : CSYCA048 - Cassava
 EXPERIMENT     : UYAG1801 CS UYT_GXE
 DATA PATH      : C:\DSSAT48\CASSAVA\
 TREATMENT  4   : IITA-TMS-IBA982101        CSYCA048
  

 CSYCA  YEAR DOY = 2018 172
   NO reserve CH2O included in the wt of leaves,stems,and Plant. stick.        

******************************************************************************

*DSSAT Cropping System Model Ver. 4.8.0.010 -develop  AUG 07, 2021 22:26:31

*RUN 139        : TMEB419                   CSYCA048 UYAG1801    5
 MODEL          : CSYCA048 - Cassava
 EXPERIMENT     : UYAG1801 CS UYT_GXE
 DATA PATH      : C:\DSSAT48\CASSAVA\
 TREATMENT  5   : TMEB419                   CSYCA048
  

 CSYCA  YEAR DOY = 2018 172
   NO reserve CH2O included in the wt of leaves,stems,and Plant. stick.        

******************************************************************************

*DSSAT Cropping System Model Ver. 4.8.0.010 -develop  AUG 07, 2021 22:26:32

*RUN 140        : TMS13F1021P0008           CSYCA048 UYAG1801    6
 MODEL          : CSYCA048 - Cassava
 EXPERIMENT     : UYAG1801 CS UYT_GXE
 DATA PATH      : C:\DSSAT48\CASSAVA\
 TREATMENT  6   : TMS13F1021P0008           CSYCA048
  

 CSYCA  YEAR DOY = 2018 172
   NO reserve CH2O included in the wt of leaves,stems,and Plant. stick.        

******************************************************************************

*DSSAT Cropping System Model Ver. 4.8.0.010 -develop  AUG 07, 2021 22:26:32

*RUN 141        : TMS13F1049P0001           CSYCA048 UYAG1801    7
 MODEL          : CSYCA048 - Cassava
 EXPERIMENT     : UYAG1801 CS UYT_GXE
 DATA PATH      : C:\DSSAT48\CASSAVA\
 TREATMENT  7   : TMS13F1049P0001           CSYCA048
  

 CSYCA  YEAR DOY = 2018 172
   NO reserve CH2O included in the wt of leaves,stems,and Plant. stick.        

******************************************************************************

*DSSAT Cropping System Model Ver. 4.8.0.010 -develop  AUG 07, 2021 22:26:33

*RUN 142        : TMS13F1114P0001           CSYCA048 UYAG1801    8
 MODEL          : CSYCA048 - Cassava
 EXPERIMENT     : UYAG1801 CS UYT_GXE
 DATA PATH      : C:\DSSAT48\CASSAVA\
 TREATMENT  8   : TMS13F1114P0001           CSYCA048
  

 CSYCA  YEAR DOY = 2018 172
   NO reserve CH2O included in the wt of leaves,stems,and Plant. stick.        

******************************************************************************

*DSSAT Cropping System Model Ver. 4.8.0.010 -develop  AUG 07, 2021 22:26:33

*RUN 143        : TMS13F1126P0003           CSYCA048 UYAG1801    9
 MODEL          : CSYCA048 - Cassava
 EXPERIMENT     : UYAG1801 CS UYT_GXE
 DATA PATH      : C:\DSSAT48\CASSAVA\
 TREATMENT  9   : TMS13F1126P0003           CSYCA048
  

 CSYCA  YEAR DOY = 2018 172
   NO reserve CH2O included in the wt of leaves,stems,and Plant. stick.        

******************************************************************************

*DSSAT Cropping System Model Ver. 4.8.0.010 -develop  AUG 07, 2021 22:26:34

*RUN 144        : TMS13F1182P0002           CSYCA048 UYAG1801   10
 MODEL          : CSYCA048 - Cassava
 EXPERIMENT     : UYAG1801 CS UYT_GXE
 DATA PATH      : C:\DSSAT48\CASSAVA\
 TREATMENT 10   : TMS13F1182P0002           CSYCA048
  

 CSYCA  YEAR DOY = 2018 172
   NO reserve CH2O included in the wt of leaves,stems,and Plant. stick.        

******************************************************************************

*DSSAT Cropping System Model Ver. 4.8.0.010 -develop  AUG 07, 2021 22:26:34

*RUN 145        : TMS13F1304P0003           CSYCA048 UYAG1801   11
 MODEL          : CSYCA048 - Cassava
 EXPERIMENT     : UYAG1801 CS UYT_GXE
 DATA PATH      : C:\DSSAT48\CASSAVA\
 TREATMENT 11   : TMS13F1304P0003           CSYCA048
  

 CSYCA  YEAR DOY = 2018 172
   NO reserve CH2O included in the wt of leaves,stems,and Plant. stick.        

******************************************************************************

*DSSAT Cropping System Model Ver. 4.8.0.010 -develop  AUG 07, 2021 22:26:35

*RUN 146        : TMS13F1315P0008           CSYCA048 UYAG1801   12
 MODEL          : CSYCA048 - Cassava
 EXPERIMENT     : UYAG1801 CS UYT_GXE
 DATA PATH      : C:\DSSAT48\CASSAVA\
 TREATMENT 12   : TMS13F1315P0008           CSYCA048
  

 CSYCA  YEAR DOY = 2018 172
   NO reserve CH2O included in the wt of leaves,stems,and Plant. stick.        

******************************************************************************

*DSSAT Cropping System Model Ver. 4.8.0.010 -develop  AUG 07, 2021 22:26:35

*RUN 147        : TMS13F1376P0018           CSYCA048 UYAG1801   13
 MODEL          : CSYCA048 - Cassava
 EXPERIMENT     : UYAG1801 CS UYT_GXE
 DATA PATH      : C:\DSSAT48\CASSAVA\
 TREATMENT 13   : TMS13F1376P0018           CSYCA048
  

 CSYCA  YEAR DOY = 2018 172
   NO reserve CH2O included in the wt of leaves,stems,and Plant. stick.        

******************************************************************************

*DSSAT Cropping System Model Ver. 4.8.0.010 -develop  AUG 07, 2021 22:26:36

*RUN 148        : TMS13F1400P0001           CSYCA048 UYAG1801   14
 MODEL          : CSYCA048 - Cassava
 EXPERIMENT     : UYAG1801 CS UYT_GXE
 DATA PATH      : C:\DSSAT48\CASSAVA\
 TREATMENT 14   : TMS13F1400P0001           CSYCA048
  

 CSYCA  YEAR DOY = 2018 172
   NO reserve CH2O included in the wt of leaves,stems,and Plant. stick.        

******************************************************************************

*DSSAT Cropping System Model Ver. 4.8.0.010 -develop  AUG 07, 2021 22:26:36

*RUN 149        : TMS13F1461P0002           CSYCA048 UYAG1801   15
 MODEL          : CSYCA048 - Cassava
 EXPERIMENT     : UYAG1801 CS UYT_GXE
 DATA PATH      : C:\DSSAT48\CASSAVA\
 TREATMENT 15   : TMS13F1461P0002           CSYCA048
  

 CSYCA  YEAR DOY = 2018 172
   NO reserve CH2O included in the wt of leaves,stems,and Plant. stick.        

******************************************************************************

*DSSAT Cropping System Model Ver. 4.8.0.010 -develop  AUG 07, 2021 22:26:37

*RUN 150        : TMS13F2061P0005           CSYCA048 UYAG1801   16
 MODEL          : CSYCA048 - Cassava
 EXPERIMENT     : UYAG1801 CS UYT_GXE
 DATA PATH      : C:\DSSAT48\CASSAVA\
 TREATMENT 16   : TMS13F2061P0005           CSYCA048
  

 CSYCA  YEAR DOY = 2018 172
   NO reserve CH2O included in the wt of leaves,stems,and Plant. stick.        

******************************************************************************

*DSSAT Cropping System Model Ver. 4.8.0.010 -develop  AUG 07, 2021 22:26:37

*RUN 151        : TMS13F2207P0001           CSYCA048 UYAG1801   17
 MODEL          : CSYCA048 - Cassava
 EXPERIMENT     : UYAG1801 CS UYT_GXE
 DATA PATH      : C:\DSSAT48\CASSAVA\
 TREATMENT 17   : TMS13F2207P0001           CSYCA048
  

 CSYCA  YEAR DOY = 2018 172
   NO reserve CH2O included in the wt of leaves,stems,and Plant. stick.        

******************************************************************************

*DSSAT Cropping System Model Ver. 4.8.0.010 -develop  AUG 07, 2021 22:26:38

*RUN 152        : TMS14F1001P0004           CSYCA048 UYAG1801   18
 MODEL          : CSYCA048 - Cassava
 EXPERIMENT     : UYAG1801 CS UYT_GXE
 DATA PATH      : C:\DSSAT48\CASSAVA\
 TREATMENT 18   : TMS14F1001P0004           CSYCA048
  

 CSYCA  YEAR DOY = 2018 172
   NO reserve CH2O included in the wt of leaves,stems,and Plant. stick.        

******************************************************************************

*DSSAT Cropping System Model Ver. 4.8.0.010 -develop  AUG 07, 2021 22:26:38

*RUN 153        : TMS14F1013P0007           CSYCA048 UYAG1801   19
 MODEL          : CSYCA048 - Cassava
 EXPERIMENT     : UYAG1801 CS UYT_GXE
 DATA PATH      : C:\DSSAT48\CASSAVA\
 TREATMENT 19   : TMS14F1013P0007           CSYCA048
  

 CSYCA  YEAR DOY = 2018 172
   NO reserve CH2O included in the wt of leaves,stems,and Plant. stick.        

******************************************************************************

*DSSAT Cropping System Model Ver. 4.8.0.010 -develop  AUG 07, 2021 22:26:39

*RUN 154        : TMS14F1014P0016           CSYCA048 UYAG1801   20
 MODEL          : CSYCA048 - Cassava
 EXPERIMENT     : UYAG1801 CS UYT_GXE
 DATA PATH      : C:\DSSAT48\CASSAVA\
 TREATMENT 20   : TMS14F1014P0016           CSYCA048
  

 CSYCA  YEAR DOY = 2018 172
   NO reserve CH2O included in the wt of leaves,stems,and Plant. stick.        

******************************************************************************

*DSSAT Cropping System Model Ver. 4.8.0.010 -develop  AUG 07, 2021 22:26:40

*RUN 155        : TMS14F1014P0017           CSYCA048 UYAG1801   21
 MODEL          : CSYCA048 - Cassava
 EXPERIMENT     : UYAG1801 CS UYT_GXE
 DATA PATH      : C:\DSSAT48\CASSAVA\
[...]
 MODEL          : CSYCA048 - Cassava
 EXPERIMENT     : UYZA1901 CS UYT_GXE
 DATA PATH      : C:\DSSAT48\CASSAVA\
 TREATMENT 29   : TMS14F1049P0001           CSYCA048
  

 CSYCA  YEAR DOY = 2019 174
   NO reserve CH2O included in the wt of leaves,stems,and Plant. stick.        

******************************************************************************

*DSSAT Cropping System Model Ver. 4.8.0.010 -develop  AUG 07, 2021 22:37:08

*RUN 226        : TMS14F1098P0013           CSYCA048 UYZA1901   30
 MODEL          : CSYCA048 - Cassava
 EXPERIMENT     : UYZA1901 CS UYT_GXE
 DATA PATH      : C:\DSSAT48\CASSAVA\
 TREATMENT 30   : TMS14F1098P0013           CSYCA048
  

 CSYCA  YEAR DOY = 2019 174
   NO reserve CH2O included in the wt of leaves,stems,and Plant. stick.        

******************************************************************************

*DSSAT Cropping System Model Ver. 4.8.0.010 -develop  AUG 07, 2021 22:37:09

*RUN 227        : TMS14F1120P0003           CSYCA048 UYZA1901   31
 MODEL          : CSYCA048 - Cassava
 EXPERIMENT     : UYZA1901 CS UYT_GXE
 DATA PATH      : C:\DSSAT48\CASSAVA\
 TREATMENT 31   : TMS14F1120P0003           CSYCA048
  

 CSYCA  YEAR DOY = 2019 174
   NO reserve CH2O included in the wt of leaves,stems,and Plant. stick.        

******************************************************************************

*DSSAT Cropping System Model Ver. 4.8.0.010 -develop  AUG 07, 2021 22:37:10

*RUN 228        : TMS14F1125P0010           CSYCA048 UYZA1901   32
 MODEL          : CSYCA048 - Cassava
 EXPERIMENT     : UYZA1901 CS UYT_GXE
 DATA PATH      : C:\DSSAT48\CASSAVA\
 TREATMENT 32   : TMS14F1125P0010           CSYCA048
  

 CSYCA  YEAR DOY = 2019 174
   NO reserve CH2O included in the wt of leaves,stems,and Plant. stick.        

******************************************************************************

*DSSAT Cropping System Model Ver. 4.8.0.010 -develop  AUG 07, 2021 22:37:10

*RUN 229        : TMS14F1131P0001           CSYCA048 UYZA1901   33
 MODEL          : CSYCA048 - Cassava
 EXPERIMENT     : UYZA1901 CS UYT_GXE
 DATA PATH      : C:\DSSAT48\CASSAVA\
 TREATMENT 33   : TMS14F1131P0001           CSYCA048
  

 CSYCA  YEAR DOY = 2019 174
   NO reserve CH2O included in the wt of leaves,stems,and Plant. stick.        

******************************************************************************

*DSSAT Cropping System Model Ver. 4.8.0.010 -develop  AUG 07, 2021 22:37:11

*RUN 230        : TMS14F1146P0002           CSYCA048 UYZA1901   34
 MODEL          : CSYCA048 - Cassava
 EXPERIMENT     : UYZA1901 CS UYT_GXE
 DATA PATH      : C:\DSSAT48\CASSAVA\
 TREATMENT 34   : TMS14F1146P0002           CSYCA048
  

 CSYCA  YEAR DOY = 2019 174
   NO reserve CH2O included in the wt of leaves,stems,and Plant. stick.        

******************************************************************************

*DSSAT Cropping System Model Ver. 4.8.0.010 -develop  AUG 07, 2021 22:37:11

*RUN 231        : TMS14F1159P0003           CSYCA048 UYZA1901   35
 MODEL          : CSYCA048 - Cassava
 EXPERIMENT     : UYZA1901 CS UYT_GXE
 DATA PATH      : C:\DSSAT48\CASSAVA\
 TREATMENT 35   : TMS14F1159P0003           CSYCA048
  

 CSYCA  YEAR DOY = 2019 174
   NO reserve CH2O included in the wt of leaves,stems,and Plant. stick.        

******************************************************************************

*DSSAT Cropping System Model Ver. 4.8.0.010 -develop  AUG 07, 2021 22:37:12

*RUN 232        : TMS14F1194P0002           CSYCA048 UYZA1901   36
 MODEL          : CSYCA048 - Cassava
 EXPERIMENT     : UYZA1901 CS UYT_GXE
 DATA PATH      : C:\DSSAT48\CASSAVA\
 TREATMENT 36   : TMS14F1194P0002           CSYCA048
  

 CSYCA  YEAR DOY = 2019 174
   NO reserve CH2O included in the wt of leaves,stems,and Plant. stick.        

******************************************************************************

*DSSAT Cropping System Model Ver. 4.8.0.010 -develop  AUG 07, 2021 22:37:13

*RUN 233        : TMS14F1195P0004           CSYCA048 UYZA1901   37
 MODEL          : CSYCA048 - Cassava
 EXPERIMENT     : UYZA1901 CS UYT_GXE
 DATA PATH      : C:\DSSAT48\CASSAVA\
 TREATMENT 37   : TMS14F1195P0004           CSYCA048
  

 CSYCA  YEAR DOY = 2019 174
   NO reserve CH2O included in the wt of leaves,stems,and Plant. stick.        

******************************************************************************

*DSSAT Cropping System Model Ver. 4.8.0.010 -develop  AUG 07, 2021 22:37:13

*RUN 234        : TMS14F1195P0005           CSYCA048 UYZA1901   38
 MODEL          : CSYCA048 - Cassava
 EXPERIMENT     : UYZA1901 CS UYT_GXE
 DATA PATH      : C:\DSSAT48\CASSAVA\
 TREATMENT 38   : TMS14F1195P0005           CSYCA048
  

 CSYCA  YEAR DOY = 2019 174
   NO reserve CH2O included in the wt of leaves,stems,and Plant. stick.        

******************************************************************************

*DSSAT Cropping System Model Ver. 4.8.0.010 -develop  AUG 07, 2021 22:37:14

*RUN 235        : TMS14F1196P0003           CSYCA048 UYZA1901   39
 MODEL          : CSYCA048 - Cassava
 EXPERIMENT     : UYZA1901 CS UYT_GXE
 DATA PATH      : C:\DSSAT48\CASSAVA\
 TREATMENT 39   : TMS14F1196P0003           CSYCA048
  

 CSYCA  YEAR DOY = 2019 174
   NO reserve CH2O included in the wt of leaves,stems,and Plant. stick.        

******************************************************************************

*DSSAT Cropping System Model Ver. 4.8.0.010 -develop  AUG 07, 2021 22:37:15

*RUN 236        : TMS14F1208P0007           CSYCA048 UYZA1901   40
 MODEL          : CSYCA048 - Cassava
 EXPERIMENT     : UYZA1901 CS UYT_GXE
 DATA PATH      : C:\DSSAT48\CASSAVA\
 TREATMENT 40   : TMS14F1208P0007           CSYCA048
  

 CSYCA  YEAR DOY = 2019 174
   NO reserve CH2O included in the wt of leaves,stems,and Plant. stick.        

******************************************************************************

*DSSAT Cropping System Model Ver. 4.8.0.010 -develop  AUG 07, 2021 22:37:15

*RUN 237        : TMS14F1223P0007           CSYCA048 UYZA1901   41
 MODEL          : CSYCA048 - Cassava
 EXPERIMENT     : UYZA1901 CS UYT_GXE
 DATA PATH      : C:\DSSAT48\CASSAVA\
 TREATMENT 41   : TMS14F1223P0007           CSYCA048
  

 CSYCA  YEAR DOY = 2019 174
   NO reserve CH2O included in the wt of leaves,stems,and Plant. stick.        

******************************************************************************

*DSSAT Cropping System Model Ver. 4.8.0.010 -develop  AUG 07, 2021 22:37:16

*RUN 238        : TMS14F1224P0004           CSYCA048 UYZA1901   42
 MODEL          : CSYCA048 - Cassava
 EXPERIMENT     : UYZA1901 CS UYT_GXE
 DATA PATH      : C:\DSSAT48\CASSAVA\
 TREATMENT 42   : TMS14F1224P0004           CSYCA048
  

 CSYCA  YEAR DOY = 2019 174
   NO reserve CH2O included in the wt of leaves,stems,and Plant. stick.        

******************************************************************************

*DSSAT Cropping System Model Ver. 4.8.0.010 -develop  AUG 07, 2021 22:37:17

*RUN 239        : TMS14F1262P0002           CSYCA048 UYZA1901   43
 MODEL          : CSYCA048 - Cassava
 EXPERIMENT     : UYZA1901 CS UYT_GXE
 DATA PATH      : C:\DSSAT48\CASSAVA\
 TREATMENT 43   : TMS14F1262P0002           CSYCA048
  

 CSYCA  YEAR DOY = 2019 174
   NO reserve CH2O included in the wt of leaves,stems,and Plant. stick.        

******************************************************************************

*DSSAT Cropping System Model Ver. 4.8.0.010 -develop  AUG 07, 2021 22:37:17

*RUN 240        : TMS14F1278P0003           CSYCA048 UYZA1901   44
 MODEL          : CSYCA048 - Cassava
 EXPERIMENT     : UYZA1901 CS UYT_GXE
 DATA PATH      : C:\DSSAT48\CASSAVA\
 TREATMENT 44   : TMS14F1278P0003           CSYCA048
  

 CSYCA  YEAR DOY = 2019 174
   NO reserve CH2O included in the wt of leaves,stems,and Plant. stick.        

******************************************************************************

*DSSAT Cropping System Model Ver. 4.8.0.010 -develop  AUG 07, 2021 22:37:18

*RUN 241        : TMS14F1285P0006           CSYCA048 UYZA1901   45
 MODEL          : CSYCA048 - Cassava
 EXPERIMENT     : UYZA1901 CS UYT_GXE
 DATA PATH      : C:\DSSAT48\CASSAVA\
 TREATMENT 45   : TMS14F1285P0006           CSYCA048
  

 CSYCA  YEAR DOY = 2019 174
   NO reserve CH2O included in the wt of leaves,stems,and Plant. stick.        

******************************************************************************

*DSSAT Cropping System Model Ver. 4.8.0.010 -develop  AUG 07, 2021 22:37:19

*RUN 242        : TMS14F1285P0017           CSYCA048 UYZA1901   46
 MODEL          : CSYCA048 - Cassava
 EXPERIMENT     : UYZA1901 CS UYT_GXE
 DATA PATH      : C:\DSSAT48\CASSAVA\
 TREATMENT 46   : TMS14F1285P0017           CSYCA048
  

 CSYCA  YEAR DOY = 2019 174
   NO reserve CH2O included in the wt of leaves,stems,and Plant. stick.        

******************************************************************************

*DSSAT Cropping System Model Ver. 4.8.0.010 -develop  AUG 07, 2021 22:37:19

*RUN 243        : TMS14F1287P0008           CSYCA048 UYZA1901   47
 MODEL          : CSYCA048 - Cassava
 EXPERIMENT     : UYZA1901 CS UYT_GXE
 DATA PATH      : C:\DSSAT48\CASSAVA\
 TREATMENT 47   : TMS14F1287P0008           CSYCA048
  

 CSYCA  YEAR DOY = 2019 174
   NO reserve CH2O included in the wt of leaves,stems,and Plant. stick.        

******************************************************************************

*DSSAT Cropping System Model Ver. 4.8.0.010 -develop  AUG 07, 2021 22:37:20

*RUN 244        : TMS14F1288P0008           CSYCA048 UYZA1901   48
 MODEL          : CSYCA048 - Cassava
 EXPERIMENT     : UYZA1901 CS UYT_GXE
 DATA PATH      : C:\DSSAT48\CASSAVA\
 TREATMENT 48   : TMS14F1288P0008           CSYCA048
  

 CSYCA  YEAR DOY = 2019 174
   NO reserve CH2O included in the wt of leaves,stems,and Plant. stick.        

******************************************************************************

*DSSAT Cropping System Model Ver. 4.8.0.010 -develop  AUG 07, 2021 22:37:21

*RUN 245        : TMS14F1291P0003           CSYCA048 UYZA1901   49
 MODEL          : CSYCA048 - Cassava
 EXPERIMENT     : UYZA1901 CS UYT_GXE
 DATA PATH      : C:\DSSAT48\CASSAVA\
 TREATMENT 49   : TMS14F1291P0003           CSYCA048
  

 CSYCA  YEAR DOY = 2019 174
   NO reserve CH2O included in the wt of leaves,stems,and Plant. stick.        

******************************************************************************

*DSSAT Cropping System Model Ver. 4.8.0.010 -develop  AUG 07, 2021 22:37:21

*RUN 246        : TMS14F1291P0011           CSYCA048 UYZA1901   50
 MODEL          : CSYCA048 - Cassava
 EXPERIMENT     : UYZA1901 CS UYT_GXE
 DATA PATH      : C:\DSSAT48\CASSAVA\
 TREATMENT 50   : TMS14F1291P0011           CSYCA048
  

 CSYCA  YEAR DOY = 2019 174
   NO reserve CH2O included in the wt of leaves,stems,and Plant. stick.        

******************************************************************************

*DSSAT Cropping System Model Ver. 4.8.0.010 -develop  AUG 07, 2021 22:37:22

*RUN 247        : TMS14F1291P0012           CSYCA048 UYZA1901   51
 MODEL          : CSYCA048 - Cassava
 EXPERIMENT     : UYZA1901 CS UYT_GXE
 DATA PATH      : C:\DSSAT48\CASSAVA\
 TREATMENT 51   : TMS14F1291P0012           CSYCA048
  

 CSYCA  YEAR DOY = 2019 174
   NO reserve CH2O included in the wt of leaves,stems,and Plant. stick.        

******************************************************************************

*DSSAT Cropping System Model Ver. 4.8.0.010 -develop  AUG 07, 2021 22:37:22

*RUN 248        : TMS14F1292P0012           CSYCA048 UYZA1901   52
 MODEL          : CSYCA048 - Cassava
 EXPERIMENT     : UYZA1901 CS UYT_GXE
 DATA PATH      : C:\DSSAT48\CASSAVA\
 TREATMENT 52   : TMS14F1292P0012           CSYCA048
  

 CSYCA  YEAR DOY = 2019 174
   NO reserve CH2O included in the wt of leaves,stems,and Plant. stick.        

******************************************************************************

*DSSAT Cropping System Model Ver. 4.8.0.010 -develop  AUG 07, 2021 22:37:23

*RUN 249        : TMS14F1295P0012           CSYCA048 UYZA1901   53
 MODEL          : CSYCA048 - Cassava
 EXPERIMENT     : UYZA1901 CS UYT_GXE
 DATA PATH      : C:\DSSAT48\CASSAVA\
 TREATMENT 53   : TMS14F1295P0012           CSYCA048
  

 CSYCA  YEAR DOY = 2019 174
   NO reserve CH2O included in the wt of leaves,stems,and Plant. stick.        

******************************************************************************

*DSSAT Cropping System Model Ver. 4.8.0.010 -develop  AUG 07, 2021 22:37:24

*RUN 250        : TMS14F1297P0019           CSYCA048 UYZA1901   54
 MODEL          : CSYCA048 - Cassava
 EXPERIMENT     : UYZA1901 CS UYT_GXE
 DATA PATH      : C:\DSSAT48\CASSAVA\
 TREATMENT 54   : TMS14F1297P0019           CSYCA048
  

 CSYCA  YEAR DOY = 2019 174
   NO reserve CH2O included in the wt of leaves,stems,and Plant. stick.        

******************************************************************************

*DSSAT Cropping System Model Ver. 4.8.0.010 -develop  AUG 07, 2021 22:37:24

*RUN 251        : TMS14F1299P0007           CSYCA048 UYZA1901   55
 MODEL          : CSYCA048 - Cassava
 EXPERIMENT     : UYZA1901 CS UYT_GXE
 DATA PATH      : C:\DSSAT48\CASSAVA\
 TREATMENT 55   : TMS14F1299P0007           CSYCA048
  

 CSYCA  YEAR DOY = 2019 174
   NO reserve CH2O included in the wt of leaves,stems,and Plant. stick.        

******************************************************************************

*DSSAT Cropping System Model Ver. 4.8.0.010 -develop  AUG 07, 2021 22:37:25

*RUN 252        : TMS14F1300P0002           CSYCA048 UYZA1901   56
 MODEL          : CSYCA048 - Cassava
 EXPERIMENT     : UYZA1901 CS UYT_GXE
 DATA PATH      : C:\DSSAT48\CASSAVA\
 TREATMENT 56   : TMS14F1300P0002           CSYCA048
  

 CSYCA  YEAR DOY = 2019 174
   NO reserve CH2O included in the wt of leaves,stems,and Plant. stick.        

******************************************************************************

*DSSAT Cropping System Model Ver. 4.8.0.010 -develop  AUG 07, 2021 22:37:26

*RUN 253        : TMS14F1300P0008           CSYCA048 UYZA1901   57
 MODEL          : CSYCA048 - Cassava
 EXPERIMENT     : UYZA1901 CS UYT_GXE
 DATA PATH      : C:\DSSAT48\CASSAVA\
 TREATMENT 57   : TMS14F1300P0008           CSYCA048
  

 CSYCA  YEAR DOY = 2019 174
   NO reserve CH2O included in the wt of leaves,stems,and Plant. stick.        

******************************************************************************

*DSSAT Cropping System Model Ver. 4.8.0.010 -develop  AUG 07, 2021 22:37:26

*RUN 254        : TMS14F1301P0004           CSYCA048 UYZA1901   58
 MODEL          : CSYCA048 - Cassava
 EXPERIMENT     : UYZA1901 CS UYT_GXE
 DATA PATH      : C:\DSSAT48\CASSAVA\
 TREATMENT 58   : TMS14F1301P0004           CSYCA048
  

 CSYCA  YEAR DOY = 2019 174
   NO reserve CH2O included in the wt of leaves,stems,and Plant. stick.        

******************************************************************************

*DSSAT Cropping System Model Ver. 4.8.0.010 -develop  AUG 07, 2021 22:37:27

*RUN 255        : TMS14F1301P0013           CSYCA048 UYZA1901   59
 MODEL          : CSYCA048 - Cassava
 EXPERIMENT     : UYZA1901 CS UYT_GXE
 DATA PATH      : C:\DSSAT48\CASSAVA\
 TREATMENT 59   : TMS14F1301P0013           CSYCA048
  

 CSYCA  YEAR DOY = 2019 174
   NO reserve CH2O included in the wt of leaves,stems,and Plant. stick.        

******************************************************************************

*DSSAT Cropping System Model Ver. 4.8.0.010 -develop  AUG 07, 2021 22:37:28

*RUN 256        : TMS14F1303P0012           CSYCA048 UYZA1901   60
 MODEL          : CSYCA048 - Cassava
 EXPERIMENT     : UYZA1901 CS UYT_GXE
 DATA PATH      : C:\DSSAT48\CASSAVA\
 TREATMENT 60   : TMS14F1303P0012           CSYCA048
  

 CSYCA  YEAR DOY = 2019 174
   NO reserve CH2O included in the wt of leaves,stems,and Plant. stick.        

******************************************************************************

*DSSAT Cropping System Model Ver. 4.8.0.010 -develop  AUG 07, 2021 22:37:28

*RUN 257        : TMS14F1306P0008           CSYCA048 UYZA1901   61
 MODEL          : CSYCA048 - Cassava
 EXPERIMENT     : UYZA1901 CS UYT_GXE
 DATA PATH      : C:\DSSAT48\CASSAVA\
 TREATMENT 61   : TMS14F1306P0008           CSYCA048
  

 CSYCA  YEAR DOY = 2019 174
   NO reserve CH2O included in the wt of leaves,stems,and Plant. stick.        

******************************************************************************

*DSSAT Cropping System Model Ver. 4.8.0.010 -develop  AUG 07, 2021 22:37:29

*RUN 258        : TMS14F1306P0015           CSYCA048 UYZA1901   62
 MODEL          : CSYCA048 - Cassava
 EXPERIMENT     : UYZA1901 CS UYT_GXE
 DATA PATH      : C:\DSSAT48\CASSAVA\
 TREATMENT 62   : TMS14F1306P0015           CSYCA048
  

 CSYCA  YEAR DOY = 2019 174
   NO reserve CH2O included in the wt of leaves,stems,and Plant. stick.        

******************************************************************************

*DSSAT Cropping System Model Ver. 4.8.0.010 -develop  AUG 07, 2021 22:37:30

*RUN 259        : TMS14F1306P0020           CSYCA048 UYZA1901   63
 MODEL          : CSYCA048 - Cassava
 EXPERIMENT     : UYZA1901 CS UYT_GXE
 DATA PATH      : C:\DSSAT48\CASSAVA\
 TREATMENT 63   : TMS14F1306P0020           CSYCA048
  

 CSYCA  YEAR DOY = 2019 174
   NO reserve CH2O included in the wt of leaves,stems,and Plant. stick.        

******************************************************************************

*DSSAT Cropping System Model Ver. 4.8.0.010 -develop  AUG 07, 2021 22:37:30

*RUN 260        : TMS14F1310P0004           CSYCA048 UYZA1901   64
 MODEL          : CSYCA048 - Cassava
 EXPERIMENT     : UYZA1901 CS UYT_GXE
 DATA PATH      : C:\DSSAT48\CASSAVA\
 TREATMENT 64   : TMS14F1310P0004           CSYCA048
  

 CSYCA  YEAR DOY = 2019 174
   NO reserve CH2O included in the wt of leaves,stems,and Plant. stick.        

******************************************************************************

*DSSAT Cropping System Model Ver. 4.8.0.010 -develop  AUG 07, 2021 22:37:31

*RUN 261        : TMS14F1310P0015           CSYCA048 UYZA1901   65
 MODEL          : CSYCA048 - Cassava
 EXPERIMENT     : UYZA1901 CS UYT_GXE
 DATA PATH      : C:\DSSAT48\CASSAVA\
 TREATMENT 65   : TMS14F1310P0015           CSYCA048
  

 CSYCA  YEAR DOY = 2019 174
   NO reserve CH2O included in the wt of leaves,stems,and Plant. stick.        

******************************************************************************

*DSSAT Cropping System Model Ver. 4.8.0.010 -develop  AUG 07, 2021 22:37:31

*RUN 262        : TMS14F1311P0002           CSYCA048 UYZA1901   66
 MODEL          : CSYCA048 - Cassava
 EXPERIMENT     : UYZA1901 CS UYT_GXE
 DATA PATH      : C:\DSSAT48\CASSAVA\
 TREATMENT 66   : TMS14F1311P0002           CSYCA048
  

 CSYCA  YEAR DOY = 2019 174
   NO reserve CH2O included in the wt of leaves,stems,and Plant. stick.        

******************************************************************************

*DSSAT Cropping System Model Ver. 4.8.0.010 -develop  AUG 07, 2021 22:37:32

*RUN 263        : TMS14F1312P0003           CSYCA048 UYZA1901   67
 MODEL          : CSYCA048 - Cassava
 EXPERIMENT     : UYZA1901 CS UYT_GXE
 DATA PATH      : C:\DSSAT48\CASSAVA\
 TREATMENT 67   : TMS14F1312P0003           CSYCA048
  

 CSYCA  YEAR DOY = 2019 174
   NO reserve CH2O included in the wt of leaves,stems,and Plant. stick.        
